version 3
run General-0-20240612-23:10:16-18666
attr configname General
attr datetime 20240612-23:10:16
attr datetimef 20240612-231016
attr experiment General
attr inifile omnetpp.ini
attr iterationvars ""
attr iterationvarsd ""
attr iterationvarsf ""
attr measurement ""
attr network TestNet
attr processid 18666
attr repetition 0
attr replication #0
attr resultdir results
attr runnumber 0
attr seedset 0
config image-path ../../../omnetpp-6.0.3/samples/inet4.5/images
config network TestNet
config **.app[*].typename EthernetApplication
config **.LD1.numApps 1
config **.LD1.app[0].name "\"Adas_LD1\""
config **.LD1.app[0].period 1.4ms
config **.LD1.app[0].payload 1300B
config **.LD1.app[0].startTime 1s
config **.LD1.app[0].priority 10
config **.LD1.app[0].remoteAddress "\"CU\""
config **.LD2.numApps 1
config **.LD2.app[0].name "\"Adas_LD2\""
config **.LD2.app[0].period 1.4ms
config **.LD2.app[0].payload 1300B
config **.LD2.app[0].startTime 1s
config **.LD2.app[0].priority 10
config **.LD2.app[0].remoteAddress "\"CU\""
config **.ME.numApps 6
config **.ME.app[0].name "\"Infotainment_S1\""
config **.ME.app[1].name "\"Infotainment_S2\""
config **.ME.app[2].name "\"Infotainment_S3\""
config **.ME.app[3].name "\"Infotainment_S4\""
config **.ME.app[*].period 250ns
config **.ME.app[*].payload 80B
config **.ME.app[*].startTime 1s
config **.ME.app[*].priority 1
config **.ME.app[0].remoteAddress "\"S1\""
config **.ME.app[1].remoteAddress "\"S2\""
config **.ME.app[2].remoteAddress "\"S3\""
config **.ME.app[3].remoteAddress "\"S4\""
config **.ME.app[4].name "\"Infotainment_RS1\""
config **.ME.app[5].name "\"Infotainment_RS2\""
config **.ME.app[4].period 33.33ms
config **.ME.app[4].payload 178500B
config **.ME.app[5].period 33.33ms
config **.ME.app[5].payload 178500B
config **.US1.numApps 1
config **.US1.app[0].name "\"Adas_US1\""
config **.US1.app[0].period 100ms
config **.US1.app[0].payload 188B
config **.US1.app[0].startTime 1s
config **.US1.app[0].priority 10
config **.US1.app[0].remoteAddress "\"CU\""
config **.US2.numApps 1
config **.US2.app[0].name "\"Adas_US2\""
config **.US2.app[0].period 100ms
config **.US2.app[0].payload 188B
config **.US2.app[0].startTime 1s
config **.US2.app[0].priority 10
config **.US2.app[0].remoteAddress "\"CU\""
config **.US3.numApps 1
config **.US3.app[0].name "\"Adas_US3\""
config **.US3.app[0].period 100ms
config **.US3.app[0].payload 188B
config **.US3.app[0].startTime 1s
config **.US3.app[0].priority 10
config **.US3.app[0].remoteAddress "\"CU\""
config **.US4.numApps 1
config **.US4.app[0].name "\"Adas_US4\""
config **.US4.app[0].period 100ms
config **.US4.app[0].payload 188B
config **.US4.app[0].startTime 1s
config **.US4.app[0].priority 10
config **.US4.app[0].remoteAddress "\"CU\""
config **.CU.numApps 8
config **.CU.app[0].name "\"Adas_LD1\""
config **.CU.app[1].name "\"Adas_LD2\""
config **.CU.app[2].name "\"Adas_US1\""
config **.CU.app[3].name "\"Adas_US2\""
config **.CU.app[4].name "\"Adas_US3\""
config **.CU.app[5].name "\"Adas_US4\""
config **.CU.app[6].name "\"HeadUnitDisplay\""
config **.CU.app[6].period 10ms
config **.CU.app[6].payload 10500B
config **.CU.app[6].startTime 1s
config **.CU.app[6].priority 11
config **.CU.app[6].remoteAddress "\"HU\""
config **.CU.app[7].name "\"Adas_TLM_CU\""
config **.HU.numApps 4
config **.HU.app[0].name "\"HeadUnitDisplay\""
config **.HU.app[1].name "\"Adas_CM1\""
config **.HU.app[2].name "\"Adas_TLM_HU\""
config **.HU.app[3].name "\"Adas_RC\""
config **.CM1.numApps 1
config **.CM1.app[0].name "\"Adas_CM1\""
config **.CM1.app[0].period 16.66ms
config **.CM1.app[0].payload 178500B
config **.CM1.app[0].startTime 1s
config **.CM1.app[0].priority 10
config **.CM1.app[0].remoteAddress "\"HU\""
config **.TLM.numApps 2
config **.TLM.app[0].name "\"Adas_TLM_HU\""
config **.TLM.app[1].name "\"Adas_TLM_CU\""
config **.TLM.app[*].period 625ns
config **.TLM.app[*].payload 600B
config **.TLM.app[*].startTime 1s
config **.TLM.app[*].priority 10
config **.TLM.app[0].remoteAddress "\"HU\""
config **.TLM.app[1].remoteAddress "\"CU\""
config **.RC.numApps 1
config **.RC.app[0].name "\"Adas_RC\""
config **.RC.app[0].period 33.33ms
config **.RC.app[0].payload 178500B
config **.RC.app[0].startTime 1s
config **.RC.app[0].priority 10
config **.RC.app[0].remoteAddress "\"HU\""
config **.RS1.numApps 1
config **.RS1.app[0].name "\"Infotainment_RS1\""
config **.RS2.numApps 1
config **.RS2.app[0].name "\"Infotainment_RS2\""
config **.S1.numApps 1
config **.S1.app[0].name "\"Infotainment_S1\""
config **.S2.numApps 1
config **.S2.app[0].name "\"Infotainment_S2\""
config **.S3.numApps 1
config **.S3.app[0].name "\"Infotainment_S3\""
config **.S4.numApps 1
config **.S4.app[0].name "\"Infotainment_S4\""
config *.*.hasOutgoingStreams true
config **.hasGn true
config **.generic.typename TSNNetLayer
config *.LD2.bridging.streamCoder.encoder.mapping "[{stream: \"Adas_LD1\", pcp: 0}]"
config *.*.eth[*].bitrate 100Mbps
config *.*Switch.hasEgressTrafficShaping true
config *.Switch1.eth[*].macLayer.queue.numTrafficClasses 8
config *.Switch2.eth[*].macLayer.queue.numTrafficClasses 8

par TestNet.Switch1.ethg$o[0].channel typename "\"elaborato2024.simulations.TestNet.C\""
par TestNet.Switch1.ethg$o[0].channel disabled false
attr mutable ""
par TestNet.Switch1.ethg$o[0].channel delay 0s
attr mutable ""
attr unit s
par TestNet.Switch1.ethg$o[0].channel datarate 1e+08bps
attr mutable ""
attr unit bps
par TestNet.Switch1.ethg$o[0].channel ber 1e-08
attr mutable ""
par TestNet.Switch1.ethg$o[0].channel per 0
attr mutable ""
par TestNet.CU.ethg$o[0].channel typename "\"elaborato2024.simulations.TestNet.C\""
par TestNet.CU.ethg$o[0].channel disabled false
attr mutable ""
par TestNet.CU.ethg$o[0].channel delay 0s
attr mutable ""
attr unit s
par TestNet.CU.ethg$o[0].channel datarate 1e+08bps
attr mutable ""
attr unit bps
par TestNet.CU.ethg$o[0].channel ber 1e-08
attr mutable ""
par TestNet.CU.ethg$o[0].channel per 0
attr mutable ""
par TestNet.Switch1.ethg$o[1].channel typename "\"elaborato2024.simulations.TestNet.C\""
par TestNet.Switch1.ethg$o[1].channel disabled false
attr mutable ""
par TestNet.Switch1.ethg$o[1].channel delay 0s
attr mutable ""
attr unit s
par TestNet.Switch1.ethg$o[1].channel datarate 1e+08bps
attr mutable ""
attr unit bps
par TestNet.Switch1.ethg$o[1].channel ber 1e-08
attr mutable ""
par TestNet.Switch1.ethg$o[1].channel per 0
attr mutable ""
par TestNet.S2.ethg$o[0].channel typename "\"elaborato2024.simulations.TestNet.C\""
par TestNet.S2.ethg$o[0].channel disabled false
attr mutable ""
par TestNet.S2.ethg$o[0].channel delay 0s
attr mutable ""
attr unit s
par TestNet.S2.ethg$o[0].channel datarate 1e+08bps
attr mutable ""
attr unit bps
par TestNet.S2.ethg$o[0].channel ber 1e-08
attr mutable ""
par TestNet.S2.ethg$o[0].channel per 0
attr mutable ""
par TestNet.Switch1.ethg$o[2].channel typename "\"elaborato2024.simulations.TestNet.C\""
par TestNet.Switch1.ethg$o[2].channel disabled false
attr mutable ""
par TestNet.Switch1.ethg$o[2].channel delay 0s
attr mutable ""
attr unit s
par TestNet.Switch1.ethg$o[2].channel datarate 1e+08bps
attr mutable ""
attr unit bps
par TestNet.Switch1.ethg$o[2].channel ber 1e-08
attr mutable ""
par TestNet.Switch1.ethg$o[2].channel per 0
attr mutable ""
par TestNet.S1.ethg$o[0].channel typename "\"elaborato2024.simulations.TestNet.C\""
par TestNet.S1.ethg$o[0].channel disabled false
attr mutable ""
par TestNet.S1.ethg$o[0].channel delay 0s
attr mutable ""
attr unit s
par TestNet.S1.ethg$o[0].channel datarate 1e+08bps
attr mutable ""
attr unit bps
par TestNet.S1.ethg$o[0].channel ber 1e-08
attr mutable ""
par TestNet.S1.ethg$o[0].channel per 0
attr mutable ""
par TestNet.Switch1.ethg$o[3].channel typename "\"elaborato2024.simulations.TestNet.C\""
par TestNet.Switch1.ethg$o[3].channel disabled false
attr mutable ""
par TestNet.Switch1.ethg$o[3].channel delay 0s
attr mutable ""
attr unit s
par TestNet.Switch1.ethg$o[3].channel datarate 1e+08bps
attr mutable ""
attr unit bps
par TestNet.Switch1.ethg$o[3].channel ber 1e-08
attr mutable ""
par TestNet.Switch1.ethg$o[3].channel per 0
attr mutable ""
par TestNet.HU.ethg$o[0].channel typename "\"elaborato2024.simulations.TestNet.C\""
par TestNet.HU.ethg$o[0].channel disabled false
attr mutable ""
par TestNet.HU.ethg$o[0].channel delay 0s
attr mutable ""
attr unit s
par TestNet.HU.ethg$o[0].channel datarate 1e+08bps
attr mutable ""
attr unit bps
par TestNet.HU.ethg$o[0].channel ber 1e-08
attr mutable ""
par TestNet.HU.ethg$o[0].channel per 0
attr mutable ""
par TestNet.Switch1.ethg$o[4].channel typename "\"elaborato2024.simulations.TestNet.C\""
par TestNet.Switch1.ethg$o[4].channel disabled false
attr mutable ""
par TestNet.Switch1.ethg$o[4].channel delay 0s
attr mutable ""
attr unit s
par TestNet.Switch1.ethg$o[4].channel datarate 1e+08bps
attr mutable ""
attr unit bps
par TestNet.Switch1.ethg$o[4].channel ber 1e-08
attr mutable ""
par TestNet.Switch1.ethg$o[4].channel per 0
attr mutable ""
par TestNet.US1.ethg$o[0].channel typename "\"elaborato2024.simulations.TestNet.C\""
par TestNet.US1.ethg$o[0].channel disabled false
attr mutable ""
par TestNet.US1.ethg$o[0].channel delay 0s
attr mutable ""
attr unit s
par TestNet.US1.ethg$o[0].channel datarate 1e+08bps
attr mutable ""
attr unit bps
par TestNet.US1.ethg$o[0].channel ber 1e-08
attr mutable ""
par TestNet.US1.ethg$o[0].channel per 0
attr mutable ""
par TestNet.Switch1.ethg$o[5].channel typename "\"elaborato2024.simulations.TestNet.C\""
par TestNet.Switch1.ethg$o[5].channel disabled false
attr mutable ""
par TestNet.Switch1.ethg$o[5].channel delay 0s
attr mutable ""
attr unit s
par TestNet.Switch1.ethg$o[5].channel datarate 1e+08bps
attr mutable ""
attr unit bps
par TestNet.Switch1.ethg$o[5].channel ber 1e-08
attr mutable ""
par TestNet.Switch1.ethg$o[5].channel per 0
attr mutable ""
par TestNet.LD1.ethg$o[0].channel typename "\"elaborato2024.simulations.TestNet.C\""
par TestNet.LD1.ethg$o[0].channel disabled false
attr mutable ""
par TestNet.LD1.ethg$o[0].channel delay 0s
attr mutable ""
attr unit s
par TestNet.LD1.ethg$o[0].channel datarate 1e+08bps
attr mutable ""
attr unit bps
par TestNet.LD1.ethg$o[0].channel ber 1e-08
attr mutable ""
par TestNet.LD1.ethg$o[0].channel per 0
attr mutable ""
par TestNet.Switch1.ethg$o[6].channel typename "\"elaborato2024.simulations.TestNet.C\""
par TestNet.Switch1.ethg$o[6].channel disabled false
attr mutable ""
par TestNet.Switch1.ethg$o[6].channel delay 0s
attr mutable ""
attr unit s
par TestNet.Switch1.ethg$o[6].channel datarate 1e+08bps
attr mutable ""
attr unit bps
par TestNet.Switch1.ethg$o[6].channel ber 1e-08
attr mutable ""
par TestNet.Switch1.ethg$o[6].channel per 0
attr mutable ""
par TestNet.CM1.ethg$o[0].channel typename "\"elaborato2024.simulations.TestNet.C\""
par TestNet.CM1.ethg$o[0].channel disabled false
attr mutable ""
par TestNet.CM1.ethg$o[0].channel delay 0s
attr mutable ""
attr unit s
par TestNet.CM1.ethg$o[0].channel datarate 1e+08bps
attr mutable ""
attr unit bps
par TestNet.CM1.ethg$o[0].channel ber 1e-08
attr mutable ""
par TestNet.CM1.ethg$o[0].channel per 0
attr mutable ""
par TestNet.Switch1.ethg$o[7].channel typename "\"elaborato2024.simulations.TestNet.C\""
par TestNet.Switch1.ethg$o[7].channel disabled false
attr mutable ""
par TestNet.Switch1.ethg$o[7].channel delay 0s
attr mutable ""
attr unit s
par TestNet.Switch1.ethg$o[7].channel datarate 1e+08bps
attr mutable ""
attr unit bps
par TestNet.Switch1.ethg$o[7].channel ber 1e-08
attr mutable ""
par TestNet.Switch1.ethg$o[7].channel per 0
attr mutable ""
par TestNet.US2.ethg$o[0].channel typename "\"elaborato2024.simulations.TestNet.C\""
par TestNet.US2.ethg$o[0].channel disabled false
attr mutable ""
par TestNet.US2.ethg$o[0].channel delay 0s
attr mutable ""
attr unit s
par TestNet.US2.ethg$o[0].channel datarate 1e+08bps
attr mutable ""
attr unit bps
par TestNet.US2.ethg$o[0].channel ber 1e-08
attr mutable ""
par TestNet.US2.ethg$o[0].channel per 0
attr mutable ""
par TestNet.Switch1.ethg$o[8].channel typename "\"elaborato2024.simulations.TestNet.C\""
par TestNet.Switch1.ethg$o[8].channel disabled false
attr mutable ""
par TestNet.Switch1.ethg$o[8].channel delay 0s
attr mutable ""
attr unit s
par TestNet.Switch1.ethg$o[8].channel datarate 1e+08bps
attr mutable ""
attr unit bps
par TestNet.Switch1.ethg$o[8].channel ber 1e-08
attr mutable ""
par TestNet.Switch1.ethg$o[8].channel per 0
attr mutable ""
par TestNet.LD2.ethg$o[0].channel typename "\"elaborato2024.simulations.TestNet.C\""
par TestNet.LD2.ethg$o[0].channel disabled false
attr mutable ""
par TestNet.LD2.ethg$o[0].channel delay 0s
attr mutable ""
attr unit s
par TestNet.LD2.ethg$o[0].channel datarate 1e+08bps
attr mutable ""
attr unit bps
par TestNet.LD2.ethg$o[0].channel ber 1e-08
attr mutable ""
par TestNet.LD2.ethg$o[0].channel per 0
attr mutable ""
par TestNet.Switch2.ethg$o[0].channel typename "\"elaborato2024.simulations.TestNet.C\""
par TestNet.Switch2.ethg$o[0].channel disabled false
attr mutable ""
par TestNet.Switch2.ethg$o[0].channel delay 0s
attr mutable ""
attr unit s
par TestNet.Switch2.ethg$o[0].channel datarate 1e+08bps
attr mutable ""
attr unit bps
par TestNet.Switch2.ethg$o[0].channel ber 1e-08
attr mutable ""
par TestNet.Switch2.ethg$o[0].channel per 0
attr mutable ""
par TestNet.Switch1.ethg$o[9].channel typename "\"elaborato2024.simulations.TestNet.C\""
par TestNet.Switch1.ethg$o[9].channel disabled false
attr mutable ""
par TestNet.Switch1.ethg$o[9].channel delay 0s
attr mutable ""
attr unit s
par TestNet.Switch1.ethg$o[9].channel datarate 1e+08bps
attr mutable ""
attr unit bps
par TestNet.Switch1.ethg$o[9].channel ber 1e-08
attr mutable ""
par TestNet.Switch1.ethg$o[9].channel per 0
attr mutable ""
par TestNet.Switch2.ethg$o[1].channel typename "\"elaborato2024.simulations.TestNet.C\""
par TestNet.Switch2.ethg$o[1].channel disabled false
attr mutable ""
par TestNet.Switch2.ethg$o[1].channel delay 0s
attr mutable ""
attr unit s
par TestNet.Switch2.ethg$o[1].channel datarate 1e+08bps
attr mutable ""
attr unit bps
par TestNet.Switch2.ethg$o[1].channel ber 1e-08
attr mutable ""
par TestNet.Switch2.ethg$o[1].channel per 0
attr mutable ""
par TestNet.RS1.ethg$o[0].channel typename "\"elaborato2024.simulations.TestNet.C\""
par TestNet.RS1.ethg$o[0].channel disabled false
attr mutable ""
par TestNet.RS1.ethg$o[0].channel delay 0s
attr mutable ""
attr unit s
par TestNet.RS1.ethg$o[0].channel datarate 1e+08bps
attr mutable ""
attr unit bps
par TestNet.RS1.ethg$o[0].channel ber 1e-08
attr mutable ""
par TestNet.RS1.ethg$o[0].channel per 0
attr mutable ""
par TestNet.Switch2.ethg$o[2].channel typename "\"elaborato2024.simulations.TestNet.C\""
par TestNet.Switch2.ethg$o[2].channel disabled false
attr mutable ""
par TestNet.Switch2.ethg$o[2].channel delay 0s
attr mutable ""
attr unit s
par TestNet.Switch2.ethg$o[2].channel datarate 1e+08bps
attr mutable ""
attr unit bps
par TestNet.Switch2.ethg$o[2].channel ber 1e-08
attr mutable ""
par TestNet.Switch2.ethg$o[2].channel per 0
attr mutable ""
par TestNet.RS2.ethg$o[0].channel typename "\"elaborato2024.simulations.TestNet.C\""
par TestNet.RS2.ethg$o[0].channel disabled false
attr mutable ""
par TestNet.RS2.ethg$o[0].channel delay 0s
attr mutable ""
attr unit s
par TestNet.RS2.ethg$o[0].channel datarate 1e+08bps
attr mutable ""
attr unit bps
par TestNet.RS2.ethg$o[0].channel ber 1e-08
attr mutable ""
par TestNet.RS2.ethg$o[0].channel per 0
attr mutable ""
par TestNet.Switch2.ethg$o[3].channel typename "\"elaborato2024.simulations.TestNet.C\""
par TestNet.Switch2.ethg$o[3].channel disabled false
attr mutable ""
par TestNet.Switch2.ethg$o[3].channel delay 0s
attr mutable ""
attr unit s
par TestNet.Switch2.ethg$o[3].channel datarate 1e+08bps
attr mutable ""
attr unit bps
par TestNet.Switch2.ethg$o[3].channel ber 1e-08
attr mutable ""
par TestNet.Switch2.ethg$o[3].channel per 0
attr mutable ""
par TestNet.S4.ethg$o[0].channel typename "\"elaborato2024.simulations.TestNet.C\""
par TestNet.S4.ethg$o[0].channel disabled false
attr mutable ""
par TestNet.S4.ethg$o[0].channel delay 0s
attr mutable ""
attr unit s
par TestNet.S4.ethg$o[0].channel datarate 1e+08bps
attr mutable ""
attr unit bps
par TestNet.S4.ethg$o[0].channel ber 1e-08
attr mutable ""
par TestNet.S4.ethg$o[0].channel per 0
attr mutable ""
par TestNet.Switch2.ethg$o[4].channel typename "\"elaborato2024.simulations.TestNet.C\""
par TestNet.Switch2.ethg$o[4].channel disabled false
attr mutable ""
par TestNet.Switch2.ethg$o[4].channel delay 0s
attr mutable ""
attr unit s
par TestNet.Switch2.ethg$o[4].channel datarate 1e+08bps
attr mutable ""
attr unit bps
par TestNet.Switch2.ethg$o[4].channel ber 1e-08
attr mutable ""
par TestNet.Switch2.ethg$o[4].channel per 0
attr mutable ""
par TestNet.S3.ethg$o[0].channel typename "\"elaborato2024.simulations.TestNet.C\""
par TestNet.S3.ethg$o[0].channel disabled false
attr mutable ""
par TestNet.S3.ethg$o[0].channel delay 0s
attr mutable ""
attr unit s
par TestNet.S3.ethg$o[0].channel datarate 1e+08bps
attr mutable ""
attr unit bps
par TestNet.S3.ethg$o[0].channel ber 1e-08
attr mutable ""
par TestNet.S3.ethg$o[0].channel per 0
attr mutable ""
par TestNet.Switch2.ethg$o[5].channel typename "\"elaborato2024.simulations.TestNet.C\""
par TestNet.Switch2.ethg$o[5].channel disabled false
attr mutable ""
par TestNet.Switch2.ethg$o[5].channel delay 0s
attr mutable ""
attr unit s
par TestNet.Switch2.ethg$o[5].channel datarate 1e+08bps
attr mutable ""
attr unit bps
par TestNet.Switch2.ethg$o[5].channel ber 1e-08
attr mutable ""
par TestNet.Switch2.ethg$o[5].channel per 0
attr mutable ""
par TestNet.US3.ethg$o[0].channel typename "\"elaborato2024.simulations.TestNet.C\""
par TestNet.US3.ethg$o[0].channel disabled false
attr mutable ""
par TestNet.US3.ethg$o[0].channel delay 0s
attr mutable ""
attr unit s
par TestNet.US3.ethg$o[0].channel datarate 1e+08bps
attr mutable ""
attr unit bps
par TestNet.US3.ethg$o[0].channel ber 1e-08
attr mutable ""
par TestNet.US3.ethg$o[0].channel per 0
attr mutable ""
par TestNet.Switch2.ethg$o[6].channel typename "\"elaborato2024.simulations.TestNet.C\""
par TestNet.Switch2.ethg$o[6].channel disabled false
attr mutable ""
par TestNet.Switch2.ethg$o[6].channel delay 0s
attr mutable ""
attr unit s
par TestNet.Switch2.ethg$o[6].channel datarate 1e+08bps
attr mutable ""
attr unit bps
par TestNet.Switch2.ethg$o[6].channel ber 1e-08
attr mutable ""
par TestNet.Switch2.ethg$o[6].channel per 0
attr mutable ""
par TestNet.ME.ethg$o[0].channel typename "\"elaborato2024.simulations.TestNet.C\""
par TestNet.ME.ethg$o[0].channel disabled false
attr mutable ""
par TestNet.ME.ethg$o[0].channel delay 0s
attr mutable ""
attr unit s
par TestNet.ME.ethg$o[0].channel datarate 1e+08bps
attr mutable ""
attr unit bps
par TestNet.ME.ethg$o[0].channel ber 1e-08
attr mutable ""
par TestNet.ME.ethg$o[0].channel per 0
attr mutable ""
par TestNet.Switch2.ethg$o[7].channel typename "\"elaborato2024.simulations.TestNet.C\""
par TestNet.Switch2.ethg$o[7].channel disabled false
attr mutable ""
par TestNet.Switch2.ethg$o[7].channel delay 0s
attr mutable ""
attr unit s
par TestNet.Switch2.ethg$o[7].channel datarate 1e+08bps
attr mutable ""
attr unit bps
par TestNet.Switch2.ethg$o[7].channel ber 1e-08
attr mutable ""
par TestNet.Switch2.ethg$o[7].channel per 0
attr mutable ""
par TestNet.RC.ethg$o[0].channel typename "\"elaborato2024.simulations.TestNet.C\""
par TestNet.RC.ethg$o[0].channel disabled false
attr mutable ""
par TestNet.RC.ethg$o[0].channel delay 0s
attr mutable ""
attr unit s
par TestNet.RC.ethg$o[0].channel datarate 1e+08bps
attr mutable ""
attr unit bps
par TestNet.RC.ethg$o[0].channel ber 1e-08
attr mutable ""
par TestNet.RC.ethg$o[0].channel per 0
attr mutable ""
par TestNet.Switch2.ethg$o[8].channel typename "\"elaborato2024.simulations.TestNet.C\""
par TestNet.Switch2.ethg$o[8].channel disabled false
attr mutable ""
par TestNet.Switch2.ethg$o[8].channel delay 0s
attr mutable ""
attr unit s
par TestNet.Switch2.ethg$o[8].channel datarate 1e+08bps
attr mutable ""
attr unit bps
par TestNet.Switch2.ethg$o[8].channel ber 1e-08
attr mutable ""
par TestNet.Switch2.ethg$o[8].channel per 0
attr mutable ""
par TestNet.TLM.ethg$o[0].channel typename "\"elaborato2024.simulations.TestNet.C\""
par TestNet.TLM.ethg$o[0].channel disabled false
attr mutable ""
par TestNet.TLM.ethg$o[0].channel delay 0s
attr mutable ""
attr unit s
par TestNet.TLM.ethg$o[0].channel datarate 1e+08bps
attr mutable ""
attr unit bps
par TestNet.TLM.ethg$o[0].channel ber 1e-08
attr mutable ""
par TestNet.TLM.ethg$o[0].channel per 0
attr mutable ""
par TestNet.Switch2.ethg$o[9].channel typename "\"elaborato2024.simulations.TestNet.C\""
par TestNet.Switch2.ethg$o[9].channel disabled false
attr mutable ""
par TestNet.Switch2.ethg$o[9].channel delay 0s
attr mutable ""
attr unit s
par TestNet.Switch2.ethg$o[9].channel datarate 1e+08bps
attr mutable ""
attr unit bps
par TestNet.Switch2.ethg$o[9].channel ber 1e-08
attr mutable ""
par TestNet.Switch2.ethg$o[9].channel per 0
attr mutable ""
par TestNet.US4.ethg$o[0].channel typename "\"elaborato2024.simulations.TestNet.C\""
par TestNet.US4.ethg$o[0].channel disabled false
attr mutable ""
par TestNet.US4.ethg$o[0].channel delay 0s
attr mutable ""
attr unit s
par TestNet.US4.ethg$o[0].channel datarate 1e+08bps
attr mutable ""
attr unit bps
par TestNet.US4.ethg$o[0].channel ber 1e-08
attr mutable ""
par TestNet.US4.ethg$o[0].channel per 0
attr mutable ""
par TestNet.visualizer.sceneVisualizer typename "\"inet.visualizer.canvas.scene.SceneCanvasVisualizer\""
par TestNet.visualizer.sceneVisualizer visualizationTargetModule "\"^.^\""
par TestNet.visualizer.sceneVisualizer visualizationSubjectModule "\"^.^\""
par TestNet.visualizer.sceneVisualizer tags "\"\""
par TestNet.visualizer.sceneVisualizer physicalEnvironmentModule "\"physicalEnvironment\""
par TestNet.visualizer.sceneVisualizer networkNodeVisualizerModule "\"^.networkNodeVisualizer\""
par TestNet.visualizer.sceneVisualizer axisLength "nan m"
attr mutable ""
attr unit m
par TestNet.visualizer.sceneVisualizer animationSpeed 0
par TestNet.visualizer.sceneVisualizer sceneMinX "nan m"
attr unit m
par TestNet.visualizer.sceneVisualizer sceneMinY "nan m"
attr unit m
par TestNet.visualizer.sceneVisualizer sceneMinZ "nan m"
attr unit m
par TestNet.visualizer.sceneVisualizer sceneMaxX "nan m"
attr unit m
par TestNet.visualizer.sceneVisualizer sceneMaxY "nan m"
attr unit m
par TestNet.visualizer.sceneVisualizer sceneMaxZ "nan m"
attr unit m
par TestNet.visualizer.sceneVisualizer zIndex 0
par TestNet.visualizer.sceneVisualizer viewAngle "\"x right y down z out\""
attr mutable ""
par TestNet.visualizer.sceneVisualizer viewScale "\"1 1\""
attr mutable ""
par TestNet.visualizer.sceneVisualizer viewTranslation "\"0 0\""
attr mutable ""
par TestNet.visualizer.sceneVisualizer descriptionFigure "\"\""
par TestNet.visualizer.physicalEnvironmentVisualizer typename "\"inet.visualizer.canvas.environment.PhysicalEnvironmentCanvasVisualizer\""
par TestNet.visualizer.physicalEnvironmentVisualizer visualizationTargetModule "\"^.^\""
par TestNet.visualizer.physicalEnvironmentVisualizer visualizationSubjectModule "\"^.^\""
par TestNet.visualizer.physicalEnvironmentVisualizer tags "\"\""
par TestNet.visualizer.physicalEnvironmentVisualizer physicalEnvironmentModule "\"physicalEnvironment\""
par TestNet.visualizer.physicalEnvironmentVisualizer displayObjects true
par TestNet.visualizer.physicalEnvironmentVisualizer zIndex 0
par TestNet.visualizer.networkNodeVisualizer typename "\"inet.visualizer.canvas.scene.NetworkNodeCanvasVisualizer\""
par TestNet.visualizer.networkNodeVisualizer visualizationTargetModule "\"^.^\""
par TestNet.visualizer.networkNodeVisualizer visualizationSubjectModule "\"^.^\""
par TestNet.visualizer.networkNodeVisualizer tags "\"\""
par TestNet.visualizer.networkNodeVisualizer nodeFilter "\"*\""
attr mutable ""
par TestNet.visualizer.networkNodeVisualizer annotationSpacing 4
par TestNet.visualizer.networkNodeVisualizer placementPenalty 10
par TestNet.visualizer.networkNodeVisualizer zIndex 0
par TestNet.visualizer.networkConnectionVisualizer typename "\"inet.visualizer.canvas.scene.NetworkConnectionCanvasVisualizer\""
par TestNet.visualizer.networkConnectionVisualizer visualizationTargetModule "\"^.^\""
par TestNet.visualizer.networkConnectionVisualizer visualizationSubjectModule "\"^.^\""
par TestNet.visualizer.networkConnectionVisualizer tags "\"\""
par TestNet.visualizer.networkConnectionVisualizer displayNetworkConnections true
par TestNet.visualizer.networkConnectionVisualizer nodeFilter "\"\""
attr mutable ""
par TestNet.visualizer.networkConnectionVisualizer lineColor "\"black\""
par TestNet.visualizer.networkConnectionVisualizer lineStyle "\"solid\""
par TestNet.visualizer.networkConnectionVisualizer lineWidth 1
par TestNet.visualizer.networkConnectionVisualizer zIndex 0
par TestNet.visualizer.mobilityVisualizer typename "\"inet.visualizer.canvas.mobility.MobilityCanvasVisualizer\""
par TestNet.visualizer.mobilityVisualizer visualizationTargetModule "\"^.^\""
par TestNet.visualizer.mobilityVisualizer visualizationSubjectModule "\"^.^\""
par TestNet.visualizer.mobilityVisualizer tags "\"\""
par TestNet.visualizer.mobilityVisualizer networkNodeVisualizerModule "\"^.networkNodeVisualizer\""
par TestNet.visualizer.mobilityVisualizer displayMobility true
par TestNet.visualizer.mobilityVisualizer animationSpeed 0
par TestNet.visualizer.mobilityVisualizer moduleFilter "\"**.mobility\""
attr mutable ""
par TestNet.visualizer.mobilityVisualizer displayPositions false
par TestNet.visualizer.mobilityVisualizer positionCircleRadius 4
par TestNet.visualizer.mobilityVisualizer positionCircleLineWidth 1
par TestNet.visualizer.mobilityVisualizer positionCircleLineColor "\"dark\""
attr enum light,dark
par TestNet.visualizer.mobilityVisualizer positionCircleFillColor "\"dark\""
attr enum light,dark
par TestNet.visualizer.mobilityVisualizer displayOrientations false
par TestNet.visualizer.mobilityVisualizer orientationPieRadius 32
par TestNet.visualizer.mobilityVisualizer orientationPieSize 0.2
par TestNet.visualizer.mobilityVisualizer orientationPieOpacity 0.25
par TestNet.visualizer.mobilityVisualizer orientationLineColor "\"black\""
par TestNet.visualizer.mobilityVisualizer orientationLineStyle "\"solid\""
par TestNet.visualizer.mobilityVisualizer orientationLineWidth 1
par TestNet.visualizer.mobilityVisualizer orientationFillColor "\"blue\""
par TestNet.visualizer.mobilityVisualizer displayVelocities false
par TestNet.visualizer.mobilityVisualizer velocityArrowScale 1
par TestNet.visualizer.mobilityVisualizer velocityLineColor "\"black\""
par TestNet.visualizer.mobilityVisualizer velocityLineStyle "\"solid\""
par TestNet.visualizer.mobilityVisualizer velocityLineWidth 1
par TestNet.visualizer.mobilityVisualizer displayMovementTrails false
par TestNet.visualizer.mobilityVisualizer movementTrailLineColor "\"dark\""
attr enum light,dark
par TestNet.visualizer.mobilityVisualizer movementTrailLineStyle "\"solid\""
par TestNet.visualizer.mobilityVisualizer movementTrailLineWidth 1
par TestNet.visualizer.mobilityVisualizer trailLength 100
par TestNet.visualizer.mobilityVisualizer zIndex 0
par TestNet.visualizer.statisticVisualizer typename "\"inet.visualizer.canvas.common.StatisticCanvasVisualizer\""
par TestNet.visualizer.statisticVisualizer visualizationTargetModule "\"^.^\""
par TestNet.visualizer.statisticVisualizer visualizationSubjectModule "\"^.^\""
par TestNet.visualizer.statisticVisualizer tags "\"\""
par TestNet.visualizer.statisticVisualizer networkNodeVisualizerModule "\"^.networkNodeVisualizer\""
par TestNet.visualizer.statisticVisualizer displayStatistics true
par TestNet.visualizer.statisticVisualizer signalName "\"\""
par TestNet.visualizer.statisticVisualizer statisticName "\"\""
par TestNet.visualizer.statisticVisualizer statisticUnit "\"\""
par TestNet.visualizer.statisticVisualizer statisticExpression "\"\""
par TestNet.visualizer.statisticVisualizer sourceFilter "\"**\""
attr mutable ""
par TestNet.visualizer.statisticVisualizer format "\"%n: %v %u\""
attr mutable ""
par TestNet.visualizer.statisticVisualizer unit "\"\""
par TestNet.visualizer.statisticVisualizer font "\"<default>\""
par TestNet.visualizer.statisticVisualizer textColor "\"black\""
par TestNet.visualizer.statisticVisualizer backgroundColor "\"white\""
par TestNet.visualizer.statisticVisualizer opacity 1
par TestNet.visualizer.statisticVisualizer placementHint "\"top\""
par TestNet.visualizer.statisticVisualizer placementPriority 0
par TestNet.visualizer.statisticVisualizer zIndex 10
par TestNet.visualizer.statisticVisualizer propertyName "\"\""
par TestNet.visualizer.statisticVisualizer propertyIndex "\"\""
par TestNet.visualizer.infoVisualizer typename "\"inet.visualizer.canvas.common.InfoCanvasVisualizer\""
par TestNet.visualizer.infoVisualizer visualizationTargetModule "\"^.^\""
par TestNet.visualizer.infoVisualizer visualizationSubjectModule "\"^.^\""
par TestNet.visualizer.infoVisualizer tags "\"\""
par TestNet.visualizer.infoVisualizer networkNodeVisualizerModule "\"^.networkNodeVisualizer\""
par TestNet.visualizer.infoVisualizer displayInfos true
par TestNet.visualizer.infoVisualizer modules "\"\""
attr mutable ""
par TestNet.visualizer.infoVisualizer format "\"%t\""
attr mutable ""
par TestNet.visualizer.infoVisualizer font "\"<default>\""
par TestNet.visualizer.infoVisualizer textColor "\"black\""
par TestNet.visualizer.infoVisualizer backgroundColor "\"white\""
par TestNet.visualizer.infoVisualizer opacity 1
par TestNet.visualizer.infoVisualizer placementHint "\"top\""
par TestNet.visualizer.infoVisualizer placementPriority 0
par TestNet.visualizer.infoVisualizer zIndex 10
par TestNet.visualizer.energyStorageVisualizer typename "\"inet.visualizer.canvas.power.EnergyStorageCanvasVisualizer\""
par TestNet.visualizer.energyStorageVisualizer visualizationTargetModule "\"^.^\""
par TestNet.visualizer.energyStorageVisualizer visualizationSubjectModule "\"^.^\""
par TestNet.visualizer.energyStorageVisualizer tags "\"\""
par TestNet.visualizer.energyStorageVisualizer networkNodeVisualizerModule "\"^.networkNodeVisualizer\""
par TestNet.visualizer.energyStorageVisualizer displayEnergyStorages false
par TestNet.visualizer.energyStorageVisualizer energyStorageFilter "\"**\""
par TestNet.visualizer.energyStorageVisualizer color "\"green\""
par TestNet.visualizer.energyStorageVisualizer width 8
par TestNet.visualizer.energyStorageVisualizer height 24
par TestNet.visualizer.energyStorageVisualizer spacing 2
par TestNet.visualizer.energyStorageVisualizer placementHint "\"right\""
par TestNet.visualizer.energyStorageVisualizer placementPriority 0
par TestNet.visualizer.energyStorageVisualizer zIndex 10
par TestNet.visualizer.mediumVisualizer typename "\"inet.visualizer.canvas.physicallayer.MediumCanvasVisualizer\""
par TestNet.visualizer.mediumVisualizer visualizationTargetModule "\"^.^\""
par TestNet.visualizer.mediumVisualizer visualizationSubjectModule "\"^.^\""
par TestNet.visualizer.mediumVisualizer tags "\"\""
par TestNet.visualizer.mediumVisualizer mediumModule "\"radioMedium\""
par TestNet.visualizer.mediumVisualizer networkNodeVisualizerModule "\"^.networkNodeVisualizer\""
par TestNet.visualizer.mediumVisualizer nodeFilter "\"*\""
attr mutable ""
par TestNet.visualizer.mediumVisualizer interfaceFilter "\"*\""
attr mutable ""
par TestNet.visualizer.mediumVisualizer packetFilter "(omnetpp::cValueHolder)holder: \"*\""
attr mutable ""
par TestNet.visualizer.mediumVisualizer displaySignals false
par TestNet.visualizer.mediumVisualizer signalColor "\"dark\""
attr enum light,dark
par TestNet.visualizer.mediumVisualizer signalPropagationAnimationSpeed "nan "
attr mutable ""
par TestNet.visualizer.mediumVisualizer signalPropagationAnimationTime 1s
attr unit s
par TestNet.visualizer.mediumVisualizer signalPropagationAdditionalTime 0s
attr unit s
par TestNet.visualizer.mediumVisualizer signalTransmissionAnimationSpeed "nan "
attr mutable ""
par TestNet.visualizer.mediumVisualizer signalTransmissionAnimationTime 1s
attr unit s
par TestNet.visualizer.mediumVisualizer signalAnimationSpeedChangeTimeMode "\"realTime\""
attr enum realTime,animationTime,simulationTime
par TestNet.visualizer.mediumVisualizer signalAnimationSpeedChangeTime 1s
attr unit s
par TestNet.visualizer.mediumVisualizer displaySignalDepartures false
par TestNet.visualizer.mediumVisualizer signalDepartureImage "\"misc/signal_departure.png\""
par TestNet.visualizer.mediumVisualizer signalDeparturePlacementHint "\"topCenter\""
par TestNet.visualizer.mediumVisualizer signalDeparturePlacementPriority 1
par TestNet.visualizer.mediumVisualizer displaySignalArrivals false
par TestNet.visualizer.mediumVisualizer signalArrivalImage "\"misc/signal_arrival.png\""
par TestNet.visualizer.mediumVisualizer signalArrivalPlacementHint "\"topCenter\""
par TestNet.visualizer.mediumVisualizer signalArrivalPlacementPriority -1
par TestNet.visualizer.mediumVisualizer displayCommunicationRanges false
par TestNet.visualizer.mediumVisualizer communicationRangeLineColor "\"blue\""
par TestNet.visualizer.mediumVisualizer communicationRangeLineStyle "\"solid\""
par TestNet.visualizer.mediumVisualizer communicationRangeLineWidth 1
par TestNet.visualizer.mediumVisualizer displayInterferenceRanges false
par TestNet.visualizer.mediumVisualizer interferenceRangeLineColor "\"gray\""
par TestNet.visualizer.mediumVisualizer interferenceRangeLineStyle "\"solid\""
par TestNet.visualizer.mediumVisualizer interferenceRangeLineWidth 1
par TestNet.visualizer.mediumVisualizer autoPowerAxis true
par TestNet.visualizer.mediumVisualizer signalMinPower "inf dBmW"
attr unit dBmW
par TestNet.visualizer.mediumVisualizer signalMaxPower 0dBmW
attr unit dBmW
par TestNet.visualizer.mediumVisualizer signalMinPowerDensity "inf dBmWpMHz"
attr unit dBmWpMHz
par TestNet.visualizer.mediumVisualizer signalMaxPowerDensity "-inf dBmWpMHz"
attr unit dBmWpMHz
par TestNet.visualizer.mediumVisualizer autoTimeAxis true
par TestNet.visualizer.mediumVisualizer signalMinTime 0s
attr unit s
par TestNet.visualizer.mediumVisualizer signalMaxTime 0s
attr unit s
par TestNet.visualizer.mediumVisualizer autoFrequencyAxis true
par TestNet.visualizer.mediumVisualizer signalMinFrequency "inf Hz"
attr unit Hz
par TestNet.visualizer.mediumVisualizer signalMaxFrequency "-inf Hz"
attr unit Hz
par TestNet.visualizer.mediumVisualizer displayMainPowerDensityMap false
par TestNet.visualizer.mediumVisualizer mainPowerDensityMapPixmapDensity 1
par TestNet.visualizer.mediumVisualizer mainPowerDensityMapMinX 0
par TestNet.visualizer.mediumVisualizer mainPowerDensityMapMaxX "nan "
par TestNet.visualizer.mediumVisualizer mainPowerDensityMapMinY 0
par TestNet.visualizer.mediumVisualizer mainPowerDensityMapMaxY "nan "
par TestNet.visualizer.mediumVisualizer mainPowerDensityMapZ 0
par TestNet.visualizer.mediumVisualizer mainPowerDensityMapFigureXTickCount 3
par TestNet.visualizer.mediumVisualizer mainPowerDensityMapFigureYTickCount 3
par TestNet.visualizer.mediumVisualizer displayPowerDensityMaps false
par TestNet.visualizer.mediumVisualizer powerDensityMapMode "\"auto\""
attr enum total,signal,auto
par TestNet.visualizer.mediumVisualizer powerDensityMapPixelMode "\"mean\""
attr enum sample,partition,mean
par TestNet.visualizer.mediumVisualizer powerDensityMapApproximationSize 10
par TestNet.visualizer.mediumVisualizer powerDensityMapCenterFrequency "nan Hz"
attr mutable ""
attr unit Hz
par TestNet.visualizer.mediumVisualizer powerDensityMapBandwidth 0Hz
attr mutable ""
attr unit Hz
par TestNet.visualizer.mediumVisualizer powerDensityMapFigureWidth 200
par TestNet.visualizer.mediumVisualizer powerDensityMapFigureHeight 120
par TestNet.visualizer.mediumVisualizer powerDensityMapPixmapWidth 200
par TestNet.visualizer.mediumVisualizer powerDensityMapPixmapHeight 120
par TestNet.visualizer.mediumVisualizer powerDensityMapZ 0
par TestNet.visualizer.mediumVisualizer powerDensityMapFigureXTickCount 3
par TestNet.visualizer.mediumVisualizer powerDensityMapFigureYTickCount 3
par TestNet.visualizer.mediumVisualizer displaySpectrums false
par TestNet.visualizer.mediumVisualizer spectrumMode "\"auto\""
attr enum total,signal,auto
par TestNet.visualizer.mediumVisualizer spectrumFigureWidth 200
par TestNet.visualizer.mediumVisualizer spectrumFigureHeight 120
par TestNet.visualizer.mediumVisualizer spectrumFigureXTickCount 3
par TestNet.visualizer.mediumVisualizer spectrumFigureYTickCount 5
par TestNet.visualizer.mediumVisualizer spectrumFigureInterpolationSize 5
par TestNet.visualizer.mediumVisualizer spectrumPlacementHint "\"bottomCenter\""
par TestNet.visualizer.mediumVisualizer spectrumPlacementPriority -1
par TestNet.visualizer.mediumVisualizer displaySpectrograms false
par TestNet.visualizer.mediumVisualizer spectrogramMode "\"auto\""
attr enum total,signal,auto
par TestNet.visualizer.mediumVisualizer spectrogramPixelMode "\"mean\""
attr enum sample,partition,mean
par TestNet.visualizer.mediumVisualizer spectrogramFigureWidth 200
par TestNet.visualizer.mediumVisualizer spectrogramFigureHeight 120
par TestNet.visualizer.mediumVisualizer spectrogramPixmapWidth 200
par TestNet.visualizer.mediumVisualizer spectrogramPixmapHeight 120
par TestNet.visualizer.mediumVisualizer spectrogramFigureXTickCount 3
par TestNet.visualizer.mediumVisualizer spectrogramFigureYTickCount 5
par TestNet.visualizer.mediumVisualizer spectrogramPlacementHint "\"bottomCenter\""
par TestNet.visualizer.mediumVisualizer spectrogramPlacementPriority -1
par TestNet.visualizer.mediumVisualizer zIndex 0
par TestNet.visualizer.mediumVisualizer signalShape "\"ring\""
attr enum ring,sphere
par TestNet.visualizer.mediumVisualizer signalOpacity 0.5
par TestNet.visualizer.mediumVisualizer signalRingCount 20
par TestNet.visualizer.mediumVisualizer signalRingSize 50m
attr unit m
par TestNet.visualizer.mediumVisualizer signalFadingDistance 50m
attr unit m
par TestNet.visualizer.mediumVisualizer signalFadingFactor 1.2
par TestNet.visualizer.mediumVisualizer signalWaveCount 20
par TestNet.visualizer.mediumVisualizer signalWaveLength 50m
attr unit m
par TestNet.visualizer.mediumVisualizer signalWaveWidth 10m
attr unit m
par TestNet.visualizer.mediumVisualizer signalWaveFadingAnimationSpeedFactor 1
par TestNet.visualizer.mediumVisualizer displayCommunicationHeat false
par TestNet.visualizer.obstacleLossVisualizer typename "\"inet.visualizer.canvas.physicallayer.TracingObstacleLossCanvasVisualizer\""
par TestNet.visualizer.obstacleLossVisualizer visualizationTargetModule "\"^.^\""
par TestNet.visualizer.obstacleLossVisualizer visualizationSubjectModule "\"^.^\""
par TestNet.visualizer.obstacleLossVisualizer tags "\"\""
par TestNet.visualizer.obstacleLossVisualizer displayIntersections false
par TestNet.visualizer.obstacleLossVisualizer intersectionLineColor "\"red\""
par TestNet.visualizer.obstacleLossVisualizer intersectionLineStyle "\"solid\""
par TestNet.visualizer.obstacleLossVisualizer intersectionLineWidth 1
par TestNet.visualizer.obstacleLossVisualizer displayFaceNormalVectors false
par TestNet.visualizer.obstacleLossVisualizer faceNormalLineColor "\"grey\""
par TestNet.visualizer.obstacleLossVisualizer faceNormalLineStyle "\"solid\""
par TestNet.visualizer.obstacleLossVisualizer faceNormalLineWidth 1
par TestNet.visualizer.obstacleLossVisualizer fadeOutMode "\"realTime\""
attr enum realTime,animationTime,simulationTime
par TestNet.visualizer.obstacleLossVisualizer fadeOutTime 1s
attr unit s
par TestNet.visualizer.obstacleLossVisualizer fadeOutAnimationSpeed 0
par TestNet.visualizer.obstacleLossVisualizer zIndex 0
par TestNet.visualizer.packetDropVisualizer typename "\"inet.visualizer.canvas.common.PacketDropCanvasVisualizer\""
par TestNet.visualizer.packetDropVisualizer visualizationTargetModule "\"^.^\""
par TestNet.visualizer.packetDropVisualizer visualizationSubjectModule "\"^.^\""
par TestNet.visualizer.packetDropVisualizer tags "\"\""
par TestNet.visualizer.packetDropVisualizer displayPacketDrops false
par TestNet.visualizer.packetDropVisualizer nodeFilter "\"*\""
attr mutable ""
par TestNet.visualizer.packetDropVisualizer interfaceFilter "\"*\""
attr mutable ""
par TestNet.visualizer.packetDropVisualizer packetFilter "(omnetpp::cValueHolder)holder: \"*\""
attr mutable ""
par TestNet.visualizer.packetDropVisualizer detailsFilter "\"*\""
attr mutable ""
par TestNet.visualizer.packetDropVisualizer icon "\"msg/packet_s\""
par TestNet.visualizer.packetDropVisualizer iconTintAmount 1
par TestNet.visualizer.packetDropVisualizer iconTintColor "\"dark\""
par TestNet.visualizer.packetDropVisualizer labelFormat "\"%n\""
attr mutable ""
par TestNet.visualizer.packetDropVisualizer labelFont "\"<default>\""
par TestNet.visualizer.packetDropVisualizer labelColor "\"black\""
par TestNet.visualizer.packetDropVisualizer fadeOutMode "\"realTime\""
attr enum realTime,animationTime,simulationTime
par TestNet.visualizer.packetDropVisualizer fadeOutTime 1s
attr unit s
par TestNet.visualizer.packetDropVisualizer fadeOutAnimationSpeed 0
par TestNet.visualizer.packetDropVisualizer zIndex 10
par TestNet.visualizer.packetDropVisualizer dx 32
par TestNet.visualizer.packetDropVisualizer dy 64
par TestNet.visualizer.packetFlowVisualizer typename "\"inet.visualizer.canvas.flow.PacketFlowCanvasVisualizer\""
par TestNet.visualizer.packetFlowVisualizer visualizationTargetModule "\"^.^\""
par TestNet.visualizer.packetFlowVisualizer visualizationSubjectModule "\"^.^\""
par TestNet.visualizer.packetFlowVisualizer tags "\"\""
par TestNet.visualizer.packetFlowVisualizer displayRoutes false
par TestNet.visualizer.packetFlowVisualizer startPathSignal "\"packetFlowStarted\""
par TestNet.visualizer.packetFlowVisualizer extendPathSignal "\"packetReceivedFromLower\""
par TestNet.visualizer.packetFlowVisualizer endPathSignal "\"packetFlowEnded\""
par TestNet.visualizer.packetFlowVisualizer nodeFilter "\"*\""
attr mutable ""
par TestNet.visualizer.packetFlowVisualizer packetFilter "(omnetpp::cValueHolder)holder: \"*\""
attr mutable ""
par TestNet.visualizer.packetFlowVisualizer lineColor "\"dark\""
attr enum light,dark
par TestNet.visualizer.packetFlowVisualizer lineStyle "\"dashed\""
par TestNet.visualizer.packetFlowVisualizer lineWidth 3
par TestNet.visualizer.packetFlowVisualizer lineSmooth false
par TestNet.visualizer.packetFlowVisualizer lineShift 16
par TestNet.visualizer.packetFlowVisualizer lineShiftMode "\"normal\""
par TestNet.visualizer.packetFlowVisualizer lineContactSpacing 3
par TestNet.visualizer.packetFlowVisualizer lineContactMode "\"rectangular\""
attr enum circular,rectangular
par TestNet.visualizer.packetFlowVisualizer labelFormat "\"%L %p pk (%l)\""
par TestNet.visualizer.packetFlowVisualizer labelFont "\"<default>, 8px\""
par TestNet.visualizer.packetFlowVisualizer labelColor "\"\""
par TestNet.visualizer.packetFlowVisualizer fadeOutMode "\"realTime\""
attr enum realTime,animationTime,simulationTime
par TestNet.visualizer.packetFlowVisualizer fadeOutTime 0s
attr unit s
par TestNet.visualizer.packetFlowVisualizer fadeOutAnimationSpeed 0
par TestNet.visualizer.packetFlowVisualizer zIndex 4
par TestNet.visualizer.queueVisualizer typename "\"inet.visualizer.canvas.common.QueueCanvasVisualizer\""
par TestNet.visualizer.queueVisualizer visualizationTargetModule "\"^.^\""
par TestNet.visualizer.queueVisualizer visualizationSubjectModule "\"^.^\""
par TestNet.visualizer.queueVisualizer tags "\"\""
par TestNet.visualizer.queueVisualizer networkNodeVisualizerModule "\"^.networkNodeVisualizer\""
par TestNet.visualizer.queueVisualizer displayQueues false
par TestNet.visualizer.queueVisualizer queueFilter "\"**\""
par TestNet.visualizer.queueVisualizer color "\"blue\""
par TestNet.visualizer.queueVisualizer width 8
par TestNet.visualizer.queueVisualizer height 24
par TestNet.visualizer.queueVisualizer spacing 2
par TestNet.visualizer.queueVisualizer placementHint "\"right\""
par TestNet.visualizer.queueVisualizer placementPriority 0
par TestNet.visualizer.queueVisualizer zIndex 10
par TestNet.visualizer.gateScheduleVisualizer typename "\"inet.visualizer.canvas.common.GateScheduleCanvasVisualizer\""
par TestNet.visualizer.gateScheduleVisualizer visualizationTargetModule "\"^.^\""
par TestNet.visualizer.gateScheduleVisualizer visualizationSubjectModule "\"^.^\""
par TestNet.visualizer.gateScheduleVisualizer tags "\"\""
par TestNet.visualizer.gateScheduleVisualizer networkNodeVisualizerModule "\"^.networkNodeVisualizer\""
par TestNet.visualizer.gateScheduleVisualizer displayGateSchedules false
par TestNet.visualizer.gateScheduleVisualizer labelFormat "\"%i %D\""
par TestNet.visualizer.gateScheduleVisualizer gateFilter "\"**\""
par TestNet.visualizer.gateScheduleVisualizer width 100
par TestNet.visualizer.gateScheduleVisualizer height 8
par TestNet.visualizer.gateScheduleVisualizer spacing 2
par TestNet.visualizer.gateScheduleVisualizer placementHint "\"right\""
par TestNet.visualizer.gateScheduleVisualizer placementPriority 0
par TestNet.visualizer.gateScheduleVisualizer displayDuration 0s
attr mutable ""
attr unit s
par TestNet.visualizer.gateScheduleVisualizer currentTimePosition 50
par TestNet.visualizer.gateScheduleVisualizer zIndex 10
par TestNet.visualizer.radioVisualizer typename "\"inet.visualizer.canvas.physicallayer.RadioCanvasVisualizer\""
par TestNet.visualizer.radioVisualizer visualizationTargetModule "\"^.^\""
par TestNet.visualizer.radioVisualizer visualizationSubjectModule "\"^.^\""
par TestNet.visualizer.radioVisualizer tags "\"\""
par TestNet.visualizer.radioVisualizer networkNodeVisualizerModule "\"^.networkNodeVisualizer\""
par TestNet.visualizer.radioVisualizer displayRadios false
par TestNet.visualizer.radioVisualizer displayRadioMode true
par TestNet.visualizer.radioVisualizer displayReceptionState true
par TestNet.visualizer.radioVisualizer displayTransmissionState true
par TestNet.visualizer.radioVisualizer displayAntennaLobes false
par TestNet.visualizer.radioVisualizer radioFilter "\"**\""
attr mutable ""
par TestNet.visualizer.radioVisualizer radioModeImages "\"block/process_vs block/timer_vs block/wrx_vs block/wtx_vs block/wrxtx_vs block/cogwheel_vs\""
par TestNet.visualizer.radioVisualizer receptionStateImages "\"- - misc/receiving misc/receiving\""
par TestNet.visualizer.radioVisualizer transmissionStateImages "\"- - misc/transmitting\""
par TestNet.visualizer.radioVisualizer width 16
par TestNet.visualizer.radioVisualizer height 16
par TestNet.visualizer.radioVisualizer placementHint "\"bottomRight\""
par TestNet.visualizer.radioVisualizer placementPriority 0
par TestNet.visualizer.radioVisualizer antennaLobeNormalize false
par TestNet.visualizer.radioVisualizer antennaLobeRelativeLabels false
par TestNet.visualizer.radioVisualizer antennaLobePlaneGlobal true
par TestNet.visualizer.radioVisualizer antennaLobePlane "\"view\""
attr enum view,xy,xz,yz
par TestNet.visualizer.radioVisualizer antennaLobeMode "\"logarithmic\""
attr enum logarithmic,linear
par TestNet.visualizer.radioVisualizer antennaLobeLogarithmicBase 10
par TestNet.visualizer.radioVisualizer antennaLobeLogarithmicScale 100
par TestNet.visualizer.radioVisualizer antennaLobeRadius 100
par TestNet.visualizer.radioVisualizer antennaLobeStep 10deg
attr unit deg
par TestNet.visualizer.radioVisualizer antennaLobeOpacity 0.25
par TestNet.visualizer.radioVisualizer antennaLobeLineSmooth true
par TestNet.visualizer.radioVisualizer antennaLobeLineColor "\"black\""
par TestNet.visualizer.radioVisualizer antennaLobeLineStyle "\"solid\""
par TestNet.visualizer.radioVisualizer antennaLobeLineWidth 1
par TestNet.visualizer.radioVisualizer antennaLobeFillColor "\"white\""
par TestNet.visualizer.radioVisualizer zIndex 10
par TestNet.visualizer.physicalLinkVisualizer typename "\"inet.visualizer.canvas.physicallayer.PhysicalLinkCanvasVisualizer\""
par TestNet.visualizer.physicalLinkVisualizer visualizationTargetModule "\"^.^\""
par TestNet.visualizer.physicalLinkVisualizer visualizationSubjectModule "\"^.^\""
par TestNet.visualizer.physicalLinkVisualizer tags "\"\""
par TestNet.visualizer.physicalLinkVisualizer displayLinks false
par TestNet.visualizer.physicalLinkVisualizer activityLevel "\"service\""
attr enum service,peer,protocol
par TestNet.visualizer.physicalLinkVisualizer nodeFilter "\"*\""
attr mutable ""
par TestNet.visualizer.physicalLinkVisualizer interfaceFilter "\"*\""
attr mutable ""
par TestNet.visualizer.physicalLinkVisualizer packetFilter "(omnetpp::cValueHolder)holder: \"*\""
attr mutable ""
par TestNet.visualizer.physicalLinkVisualizer lineColor "\"olive\""
par TestNet.visualizer.physicalLinkVisualizer lineStyle "\"dotted\""
par TestNet.visualizer.physicalLinkVisualizer lineWidth 3
par TestNet.visualizer.physicalLinkVisualizer lineShift 16
par TestNet.visualizer.physicalLinkVisualizer lineShiftMode "\"normal\""
par TestNet.visualizer.physicalLinkVisualizer lineContactSpacing 3
par TestNet.visualizer.physicalLinkVisualizer lineContactMode "\"rectangular\""
attr enum circular,rectangular
par TestNet.visualizer.physicalLinkVisualizer labelFormat "\"%n\""
par TestNet.visualizer.physicalLinkVisualizer labelFont "\"<default>, 8px\""
par TestNet.visualizer.physicalLinkVisualizer labelColor "\"olive\""
par TestNet.visualizer.physicalLinkVisualizer fadeOutMode "\"realTime\""
attr enum realTime,animationTime,simulationTime
par TestNet.visualizer.physicalLinkVisualizer fadeOutTime 1s
attr unit s
par TestNet.visualizer.physicalLinkVisualizer fadeOutAnimationSpeed 0
par TestNet.visualizer.physicalLinkVisualizer holdAnimationTime 0s
attr unit s
par TestNet.visualizer.physicalLinkVisualizer zIndex 1
par TestNet.visualizer.interfaceTableVisualizer typename "\"inet.visualizer.canvas.linklayer.InterfaceTableCanvasVisualizer\""
par TestNet.visualizer.interfaceTableVisualizer visualizationTargetModule "\"^.^\""
par TestNet.visualizer.interfaceTableVisualizer visualizationSubjectModule "\"^.^\""
par TestNet.visualizer.interfaceTableVisualizer tags "\"\""
par TestNet.visualizer.interfaceTableVisualizer networkNodeVisualizerModule "\"^.networkNodeVisualizer\""
par TestNet.visualizer.interfaceTableVisualizer displayInterfaceTables false
par TestNet.visualizer.interfaceTableVisualizer displayWiredInterfacesAtConnections true
par TestNet.visualizer.interfaceTableVisualizer displayBackground false
par TestNet.visualizer.interfaceTableVisualizer nodeFilter "\"*\""
attr mutable ""
par TestNet.visualizer.interfaceTableVisualizer interfaceFilter "\"not(lo*)\""
attr mutable ""
par TestNet.visualizer.interfaceTableVisualizer format "\"%N %\\\\%a%/%l\""
attr mutable ""
par TestNet.visualizer.interfaceTableVisualizer placementHint "\"top\""
par TestNet.visualizer.interfaceTableVisualizer placementPriority 0
par TestNet.visualizer.interfaceTableVisualizer font "\"<default>\""
par TestNet.visualizer.interfaceTableVisualizer textColor "\"#005030\""
par TestNet.visualizer.interfaceTableVisualizer backgroundColor "\"white\""
par TestNet.visualizer.interfaceTableVisualizer opacity 1
par TestNet.visualizer.interfaceTableVisualizer zIndex 10
par TestNet.visualizer.dataLinkVisualizer typename "\"inet.visualizer.canvas.linklayer.DataLinkCanvasVisualizer\""
par TestNet.visualizer.dataLinkVisualizer visualizationTargetModule "\"^.^\""
par TestNet.visualizer.dataLinkVisualizer visualizationSubjectModule "\"^.^\""
par TestNet.visualizer.dataLinkVisualizer tags "\"\""
par TestNet.visualizer.dataLinkVisualizer displayLinks false
par TestNet.visualizer.dataLinkVisualizer activityLevel "\"service\""
attr enum service,peer,protocol
par TestNet.visualizer.dataLinkVisualizer nodeFilter "\"*\""
attr mutable ""
par TestNet.visualizer.dataLinkVisualizer interfaceFilter "\"*\""
attr mutable ""
par TestNet.visualizer.dataLinkVisualizer packetFilter "(omnetpp::cValueHolder)holder: \"*\""
attr mutable ""
par TestNet.visualizer.dataLinkVisualizer lineColor "\"darkcyan\""
par TestNet.visualizer.dataLinkVisualizer lineStyle "\"solid\""
par TestNet.visualizer.dataLinkVisualizer lineWidth 3
par TestNet.visualizer.dataLinkVisualizer lineShift 16
par TestNet.visualizer.dataLinkVisualizer lineShiftMode "\"normal\""
par TestNet.visualizer.dataLinkVisualizer lineContactSpacing 3
par TestNet.visualizer.dataLinkVisualizer lineContactMode "\"rectangular\""
attr enum circular,rectangular
par TestNet.visualizer.dataLinkVisualizer labelFormat "\"%n\""
par TestNet.visualizer.dataLinkVisualizer labelFont "\"<default>, 8px\""
par TestNet.visualizer.dataLinkVisualizer labelColor "\"darkcyan\""
par TestNet.visualizer.dataLinkVisualizer fadeOutMode "\"realTime\""
attr enum realTime,animationTime,simulationTime
par TestNet.visualizer.dataLinkVisualizer fadeOutTime 1s
attr unit s
par TestNet.visualizer.dataLinkVisualizer fadeOutAnimationSpeed 0
par TestNet.visualizer.dataLinkVisualizer holdAnimationTime 0s
attr unit s
par TestNet.visualizer.dataLinkVisualizer zIndex 2
par TestNet.visualizer.linkBreakVisualizer typename "\"inet.visualizer.canvas.linklayer.LinkBreakCanvasVisualizer\""
par TestNet.visualizer.linkBreakVisualizer visualizationTargetModule "\"^.^\""
par TestNet.visualizer.linkBreakVisualizer visualizationSubjectModule "\"^.^\""
par TestNet.visualizer.linkBreakVisualizer tags "\"\""
par TestNet.visualizer.linkBreakVisualizer displayLinkBreaks false
par TestNet.visualizer.linkBreakVisualizer nodeFilter "\"*\""
attr mutable ""
par TestNet.visualizer.linkBreakVisualizer interfaceFilter "\"*\""
attr mutable ""
par TestNet.visualizer.linkBreakVisualizer packetFilter "(omnetpp::cValueHolder)holder: \"*\""
attr mutable ""
par TestNet.visualizer.linkBreakVisualizer icon "\"status/stop\""
par TestNet.visualizer.linkBreakVisualizer iconTintAmount 0
par TestNet.visualizer.linkBreakVisualizer iconTintColor "\"\""
par TestNet.visualizer.linkBreakVisualizer fadeOutMode "\"realTime\""
attr enum realTime,animationTime,simulationTime
par TestNet.visualizer.linkBreakVisualizer fadeOutTime 1s
attr unit s
par TestNet.visualizer.linkBreakVisualizer fadeOutAnimationSpeed 0
par TestNet.visualizer.linkBreakVisualizer zIndex 2
par TestNet.visualizer.ieee80211Visualizer typename "\"inet.visualizer.canvas.linklayer.Ieee80211CanvasVisualizer\""
par TestNet.visualizer.ieee80211Visualizer visualizationTargetModule "\"^.^\""
par TestNet.visualizer.ieee80211Visualizer visualizationSubjectModule "\"^.^\""
par TestNet.visualizer.ieee80211Visualizer tags "\"\""
par TestNet.visualizer.ieee80211Visualizer networkNodeVisualizerModule "\"^.networkNodeVisualizer\""
par TestNet.visualizer.ieee80211Visualizer displayAssociations false
par TestNet.visualizer.ieee80211Visualizer nodeFilter "\"*\""
attr mutable ""
par TestNet.visualizer.ieee80211Visualizer interfaceFilter "\"*\""
attr mutable ""
par TestNet.visualizer.ieee80211Visualizer minPower -85dBm
attr unit dBm
par TestNet.visualizer.ieee80211Visualizer maxPower -50dBm
attr unit dBm
par TestNet.visualizer.ieee80211Visualizer icons "\"misc/signal_power_0 misc/signal_power_1 misc/signal_power_2 misc/signal_power_3\""
par TestNet.visualizer.ieee80211Visualizer iconColor "\"dark\""
attr enum light,dark
par TestNet.visualizer.ieee80211Visualizer labelFont "\"<default>\""
par TestNet.visualizer.ieee80211Visualizer labelColor "\"black\""
par TestNet.visualizer.ieee80211Visualizer placementHint "\"top\""
par TestNet.visualizer.ieee80211Visualizer placementPriority 0
par TestNet.visualizer.ieee80211Visualizer zIndex 2
par TestNet.visualizer.networkRouteVisualizer typename "\"inet.visualizer.canvas.networklayer.NetworkRouteCanvasVisualizer\""
par TestNet.visualizer.networkRouteVisualizer visualizationTargetModule "\"^.^\""
par TestNet.visualizer.networkRouteVisualizer visualizationSubjectModule "\"^.^\""
par TestNet.visualizer.networkRouteVisualizer tags "\"\""
par TestNet.visualizer.networkRouteVisualizer displayRoutes false
par TestNet.visualizer.networkRouteVisualizer startPathSignal "\"packetReceivedFromUpper\""
par TestNet.visualizer.networkRouteVisualizer extendPathSignal "\"packetReceivedFromLower\""
par TestNet.visualizer.networkRouteVisualizer endPathSignal "\"packetSentToUpper\""
par TestNet.visualizer.networkRouteVisualizer nodeFilter "\"*\""
attr mutable ""
par TestNet.visualizer.networkRouteVisualizer packetFilter "(omnetpp::cValueHolder)holder: \"*\""
attr mutable ""
par TestNet.visualizer.networkRouteVisualizer lineColor "\"dark\""
attr enum light,dark
par TestNet.visualizer.networkRouteVisualizer lineStyle "\"solid\""
par TestNet.visualizer.networkRouteVisualizer lineWidth 3
par TestNet.visualizer.networkRouteVisualizer lineSmooth false
par TestNet.visualizer.networkRouteVisualizer lineShift 16
par TestNet.visualizer.networkRouteVisualizer lineShiftMode "\"normal\""
par TestNet.visualizer.networkRouteVisualizer lineContactSpacing 3
par TestNet.visualizer.networkRouteVisualizer lineContactMode "\"rectangular\""
attr enum circular,rectangular
par TestNet.visualizer.networkRouteVisualizer labelFormat "\"%n\""
par TestNet.visualizer.networkRouteVisualizer labelFont "\"<default>, 8px\""
par TestNet.visualizer.networkRouteVisualizer labelColor "\"\""
par TestNet.visualizer.networkRouteVisualizer fadeOutMode "\"realTime\""
attr enum realTime,animationTime,simulationTime
par TestNet.visualizer.networkRouteVisualizer fadeOutTime 1s
attr unit s
par TestNet.visualizer.networkRouteVisualizer fadeOutAnimationSpeed 0
par TestNet.visualizer.networkRouteVisualizer zIndex 3
par TestNet.visualizer.routingTableVisualizer typename "\"inet.visualizer.canvas.networklayer.RoutingTableCanvasVisualizer\""
par TestNet.visualizer.routingTableVisualizer visualizationTargetModule "\"^.^\""
par TestNet.visualizer.routingTableVisualizer visualizationSubjectModule "\"^.^\""
par TestNet.visualizer.routingTableVisualizer tags "\"\""
par TestNet.visualizer.routingTableVisualizer displayRoutingTables false
par TestNet.visualizer.routingTableVisualizer displayRoutesIndividually true
par TestNet.visualizer.routingTableVisualizer displayLabels true
par TestNet.visualizer.routingTableVisualizer destinationFilter "\"*\""
attr mutable ""
par TestNet.visualizer.routingTableVisualizer nodeFilter "\"*\""
attr mutable ""
par TestNet.visualizer.routingTableVisualizer lineColor "\"black\""
par TestNet.visualizer.routingTableVisualizer lineStyle "\"solid\""
par TestNet.visualizer.routingTableVisualizer lineWidth 2
par TestNet.visualizer.routingTableVisualizer lineShift 16
par TestNet.visualizer.routingTableVisualizer lineShiftMode "\"normal\""
par TestNet.visualizer.routingTableVisualizer lineContactSpacing 3
par TestNet.visualizer.routingTableVisualizer lineContactMode "\"rectangular\""
attr enum circular,rectangular
par TestNet.visualizer.routingTableVisualizer labelFormat "\"%d/%m -> %g (%n)\""
attr mutable ""
par TestNet.visualizer.routingTableVisualizer labelFont "\"<default>, 8px\""
par TestNet.visualizer.routingTableVisualizer labelColor "\"black\""
par TestNet.visualizer.routingTableVisualizer zIndex 0
par TestNet.visualizer.transportRouteVisualizer typename "\"inet.visualizer.canvas.transportlayer.TransportRouteCanvasVisualizer\""
par TestNet.visualizer.transportRouteVisualizer visualizationTargetModule "\"^.^\""
par TestNet.visualizer.transportRouteVisualizer visualizationSubjectModule "\"^.^\""
par TestNet.visualizer.transportRouteVisualizer tags "\"\""
par TestNet.visualizer.transportRouteVisualizer displayRoutes false
par TestNet.visualizer.transportRouteVisualizer startPathSignal "\"packetReceivedFromUpper\""
par TestNet.visualizer.transportRouteVisualizer extendPathSignal "\"packetReceivedFromLower\""
par TestNet.visualizer.transportRouteVisualizer endPathSignal "\"packetSentToUpper\""
par TestNet.visualizer.transportRouteVisualizer nodeFilter "\"*\""
attr mutable ""
par TestNet.visualizer.transportRouteVisualizer packetFilter "(omnetpp::cValueHolder)holder: \"*\""
attr mutable ""
par TestNet.visualizer.transportRouteVisualizer lineColor "\"dark\""
attr enum light,dark
par TestNet.visualizer.transportRouteVisualizer lineStyle "\"solid\""
par TestNet.visualizer.transportRouteVisualizer lineWidth 3
par TestNet.visualizer.transportRouteVisualizer lineSmooth false
par TestNet.visualizer.transportRouteVisualizer lineShift 16
par TestNet.visualizer.transportRouteVisualizer lineShiftMode "\"normal\""
par TestNet.visualizer.transportRouteVisualizer lineContactSpacing 3
par TestNet.visualizer.transportRouteVisualizer lineContactMode "\"rectangular\""
attr enum circular,rectangular
par TestNet.visualizer.transportRouteVisualizer labelFormat "\"%n\""
par TestNet.visualizer.transportRouteVisualizer labelFont "\"<default>, 8px\""
par TestNet.visualizer.transportRouteVisualizer labelColor "\"\""
par TestNet.visualizer.transportRouteVisualizer fadeOutMode "\"realTime\""
attr enum realTime,animationTime,simulationTime
par TestNet.visualizer.transportRouteVisualizer fadeOutTime 1s
attr unit s
par TestNet.visualizer.transportRouteVisualizer fadeOutAnimationSpeed 0
par TestNet.visualizer.transportRouteVisualizer zIndex 4
par TestNet.visualizer.transportConnectionVisualizer typename "\"inet.visualizer.canvas.transportlayer.TransportConnectionCanvasVisualizer\""
par TestNet.visualizer.transportConnectionVisualizer visualizationTargetModule "\"^.^\""
par TestNet.visualizer.transportConnectionVisualizer visualizationSubjectModule "\"^.^\""
par TestNet.visualizer.transportConnectionVisualizer tags "\"\""
par TestNet.visualizer.transportConnectionVisualizer networkNodeVisualizerModule "\"^.networkNodeVisualizer\""
par TestNet.visualizer.transportConnectionVisualizer displayTransportConnections false
par TestNet.visualizer.transportConnectionVisualizer sourceNodeFilter "\"*\""
attr mutable ""
par TestNet.visualizer.transportConnectionVisualizer sourcePortFilter "\"*\""
attr mutable ""
par TestNet.visualizer.transportConnectionVisualizer destinationNodeFilter "\"*\""
attr mutable ""
par TestNet.visualizer.transportConnectionVisualizer destinationPortFilter "\"*\""
attr mutable ""
par TestNet.visualizer.transportConnectionVisualizer icon "\"misc/marker_s\""
par TestNet.visualizer.transportConnectionVisualizer iconColor "\"dark\""
attr enum light,dark
par TestNet.visualizer.transportConnectionVisualizer labelFont "\"<default>\""
par TestNet.visualizer.transportConnectionVisualizer labelColor "\"black\""
par TestNet.visualizer.transportConnectionVisualizer placementHint "\"top\""
par TestNet.visualizer.transportConnectionVisualizer placementPriority 0
par TestNet.visualizer.transportConnectionVisualizer zIndex 4
par TestNet.visualizer.failureProtectionConfigurationVisualizer typename "\"inet.visualizer.canvas.configurator.FailureProtectionConfigurationCanvasVisualizer\""
par TestNet.visualizer.failureProtectionConfigurationVisualizer visualizationTargetModule "\"^.^\""
par TestNet.visualizer.failureProtectionConfigurationVisualizer visualizationSubjectModule "\"^.^\""
par TestNet.visualizer.failureProtectionConfigurationVisualizer tags "\"\""
par TestNet.visualizer.failureProtectionConfigurationVisualizer displayTrees false
par TestNet.visualizer.failureProtectionConfigurationVisualizer lineColor "\"dark\""
attr enum light,dark
par TestNet.visualizer.failureProtectionConfigurationVisualizer lineStyle "\"solid\""
par TestNet.visualizer.failureProtectionConfigurationVisualizer lineWidth 3
par TestNet.visualizer.failureProtectionConfigurationVisualizer lineSmooth false
par TestNet.visualizer.failureProtectionConfigurationVisualizer lineShift 16
par TestNet.visualizer.failureProtectionConfigurationVisualizer lineShiftMode "\"normal\""
par TestNet.visualizer.failureProtectionConfigurationVisualizer lineContactSpacing 3
par TestNet.visualizer.failureProtectionConfigurationVisualizer lineContactMode "\"rectangular\""
attr enum circular,rectangular
par TestNet.visualizer.failureProtectionConfigurationVisualizer failureProtectionConfiguratorModule "\"failureProtectionConfigurator\""
par TestNet.visualizer.failureProtectionConfigurationVisualizer streamFilter "\"*\""
par TestNet.visualizer.failureProtectionConfigurationVisualizer zIndex 3
par TestNet.visualizer.streamRedundancyConfigurationVisualizer typename "\"inet.visualizer.canvas.configurator.StreamRedundancyConfigurationCanvasVisualizer\""
par TestNet.visualizer.streamRedundancyConfigurationVisualizer visualizationTargetModule "\"^.^\""
par TestNet.visualizer.streamRedundancyConfigurationVisualizer visualizationSubjectModule "\"^.^\""
par TestNet.visualizer.streamRedundancyConfigurationVisualizer tags "\"\""
par TestNet.visualizer.streamRedundancyConfigurationVisualizer displayTrees false
par TestNet.visualizer.streamRedundancyConfigurationVisualizer lineColor "\"dark\""
attr enum light,dark
par TestNet.visualizer.streamRedundancyConfigurationVisualizer lineStyle "\"solid\""
par TestNet.visualizer.streamRedundancyConfigurationVisualizer lineWidth 3
par TestNet.visualizer.streamRedundancyConfigurationVisualizer lineSmooth false
par TestNet.visualizer.streamRedundancyConfigurationVisualizer lineShift 16
par TestNet.visualizer.streamRedundancyConfigurationVisualizer lineShiftMode "\"normal\""
par TestNet.visualizer.streamRedundancyConfigurationVisualizer lineContactSpacing 3
par TestNet.visualizer.streamRedundancyConfigurationVisualizer lineContactMode "\"rectangular\""
attr enum circular,rectangular
par TestNet.visualizer.streamRedundancyConfigurationVisualizer streamRedundancyConfiguratorModule "\"streamRedundancyConfigurator\""
par TestNet.visualizer.streamRedundancyConfigurationVisualizer streamFilter "\"*\""
par TestNet.visualizer.streamRedundancyConfigurationVisualizer zIndex 3
par TestNet.visualizer typename "\"inet.visualizer.canvas.integrated.IntegratedCanvasVisualizer\""
par TestNet.configurator typename "\"inet.networklayer.configurator.ipv4.Ipv4NetworkConfigurator\""
par TestNet.configurator minLinkWeight 0.001
par TestNet.configurator configureIsolatedNetworksSeparatly false
par TestNet.configurator config "<config>...</config> at content:1"
par TestNet.configurator assignAddresses true
par TestNet.configurator assignUniqueAddresses true
par TestNet.configurator assignDisjunctSubnetAddresses true
par TestNet.configurator addStaticRoutes true
par TestNet.configurator addDefaultRoutes true
par TestNet.configurator addSubnetRoutes true
par TestNet.configurator addDirectRoutes true
par TestNet.configurator optimizeRoutes true
par TestNet.configurator dumpTopology false
par TestNet.configurator dumpLinks false
par TestNet.configurator dumpAddresses false
par TestNet.configurator dumpRoutes false
par TestNet.configurator dumpConfig "\"\""
par TestNet.macForwardingTableConfigurator typename "\"inet.linklayer.configurator.MacForwardingTableConfigurator\""
par TestNet.LD2.ethg$i[0].channel typename "\"ned.IdealChannel\""
par TestNet.LD2.eth[0].phys$o.channel typename "\"ned.IdealChannel\""
par TestNet.LD2.interfaceTable typename "\"inet.networklayer.common.InterfaceTable\""
par TestNet.LD2.interfaceTable displayAddresses false
par TestNet.LD2.cb typename "\"inet.common.MessageDispatcher\""
par TestNet.LD2.cb displayStringTextFormat "\"processed %p pk (%l)\""
par TestNet.LD2.cb forwardServiceRegistration true
par TestNet.LD2.cb forwardProtocolRegistration true
par TestNet.LD2.bridging.directionReverser.upperLayerIn.channel typename "\"ned.IdealChannel\""
par TestNet.LD2.bridging.directionReverser.join.out.channel typename "\"ned.IdealChannel\""
par TestNet.LD2.bridging.directionReverser.lowerLayerIn.channel typename "\"ned.IdealChannel\""
par TestNet.LD2.bridging.directionReverser.fork.out[0].channel typename "\"ned.IdealChannel\""
par TestNet.LD2.bridging.directionReverser.fork typename "\"inet.common.MessageDispatcher\""
par TestNet.LD2.bridging.directionReverser.fork displayStringTextFormat "\"processed %p pk (%l)\""
par TestNet.LD2.bridging.directionReverser.fork forwardServiceRegistration false
par TestNet.LD2.bridging.directionReverser.fork forwardProtocolRegistration true
par TestNet.LD2.bridging.directionReverser.reverser typename "\"inet.linklayer.ethernet.common.PacketDirectionReverser\""
par TestNet.LD2.bridging.directionReverser.reverser displayStringTextFormat "\"processed %p pk (%l)\""
par TestNet.LD2.bridging.directionReverser.reverser forwardVlan true
par TestNet.LD2.bridging.directionReverser.reverser forwardPcp true
par TestNet.LD2.bridging.directionReverser.reverser excludeEncapsulationProtocols []
scalar TestNet.LD2.bridging.directionReverser.reverser outgoingPackets:count 0
attr recordingmode count
attr source "merge(packetPushedOut, packetPulledOut)"
attr title "outgoing packets, count"
attr unit pk
scalar TestNet.LD2.bridging.directionReverser.reverser outgoingPacketLengths:sum 0
attr interpolationmode none
attr recordingmode sum
attr source "packetLength(merge(packetPushedOut, packetPulledOut))"
attr title "outgoing packet lengths, sum"
attr unit b
statistic TestNet.LD2.bridging.directionReverser.reverser outgoingPacketLengths:histogram
field count 0
field mean nan
field stddev nan
field min nan
field max nan
field sum 0
field sqrsum 0
attr interpolationmode none
attr recordingmode histogram
attr source "packetLength(merge(packetPushedOut, packetPulledOut))"
attr title "outgoing packet lengths"
attr unit b
bin	-inf	0
bin	0	0
bin	1	0
scalar TestNet.LD2.bridging.directionReverser.reverser flowOutgoingPacketLengths:sum 0
attr interpolationmode none
attr recordingmode sum
attr source "packetLength(demuxFlow(merge(packetPushedOut, packetPulledOut)))"
attr title "flow specific outgoing packet lengths, sum"
attr unit b
statistic TestNet.LD2.bridging.directionReverser.reverser flowOutgoingPacketLengths:histogram
field count 0
field mean nan
field stddev nan
field min nan
field max nan
field sum 0
field sqrsum 0
attr interpolationmode none
attr recordingmode histogram
attr source "packetLength(demuxFlow(merge(packetPushedOut, packetPulledOut)))"
attr title "flow specific outgoing packet lengths"
attr unit b
bin	-inf	0
bin	0	0
bin	1	0
scalar TestNet.LD2.bridging.directionReverser.reverser incomingPackets:count 0
attr recordingmode count
attr source "merge(packetPushedIn, packetPulledIn)"
attr title "incoming packets, count"
attr unit pk
scalar TestNet.LD2.bridging.directionReverser.reverser incomingPacketLengths:sum 0
attr interpolationmode none
attr recordingmode sum
attr source "packetLength(merge(packetPushedIn, packetPulledIn))"
attr title "incoming packet lengths, sum"
attr unit b
statistic TestNet.LD2.bridging.directionReverser.reverser incomingPacketLengths:histogram
field count 0
field mean nan
field stddev nan
field min nan
field max nan
field sum 0
field sqrsum 0
attr interpolationmode none
attr recordingmode histogram
attr source "packetLength(merge(packetPushedIn, packetPulledIn))"
attr title "incoming packet lengths"
attr unit b
bin	-inf	0
bin	0	0
bin	1	0
scalar TestNet.LD2.bridging.directionReverser.reverser flowIncomingPacketLengths:sum 0
attr interpolationmode none
attr recordingmode sum
attr source "packetLength(demuxFlow(merge(packetPushedIn, packetPulledIn)))"
attr title "flow specific incoming packet lengths, sum"
attr unit b
statistic TestNet.LD2.bridging.directionReverser.reverser flowIncomingPacketLengths:histogram
field count 0
field mean nan
field stddev nan
field min nan
field max nan
field sum 0
field sqrsum 0
attr interpolationmode none
attr recordingmode histogram
attr source "packetLength(demuxFlow(merge(packetPushedIn, packetPulledIn)))"
attr title "flow specific incoming packet lengths"
attr unit b
bin	-inf	0
bin	0	0
bin	1	0
par TestNet.LD2.bridging.directionReverser.join typename "\"inet.queueing.common.PacketMultiplexer\""
par TestNet.LD2.bridging.directionReverser.join displayStringTextFormat "\"passed %p pk (%l)\""
par TestNet.LD2.bridging.directionReverser.join forwardServiceRegistration true
par TestNet.LD2.bridging.directionReverser.join forwardProtocolRegistration false
scalar TestNet.LD2.bridging.directionReverser.join packets:count 0
attr recordingmode count
attr source "merge(packetPushed, packetPulled)"
attr title "packets, count"
attr unit pk
scalar TestNet.LD2.bridging.directionReverser.join packetLengths:sum 0
attr interpolationmode none
attr recordingmode sum
attr source "packetLength(merge(packetPushed, packetPulled))"
attr title "packet lengths, sum"
attr unit b
statistic TestNet.LD2.bridging.directionReverser.join packetLengths:histogram
field count 0
field mean nan
field stddev nan
field min nan
field max nan
field sum 0
field sqrsum 0
attr interpolationmode none
attr recordingmode histogram
attr source "packetLength(merge(packetPushed, packetPulled))"
attr title "packet lengths"
attr unit b
bin	-inf	0
bin	0	0
bin	1	0
par TestNet.LD2.bridging.directionReverser typename "\"inet.linklayer.ethernet.common.DirectionReverserLayer\""
par TestNet.LD2.bridging.streamIdentifier.upperLayerIn.channel typename "\"ned.IdealChannel\""
par TestNet.LD2.bridging.streamIdentifier.identifier.out.channel typename "\"ned.IdealChannel\""
par TestNet.LD2.bridging.streamIdentifier.identifier typename "\"inet.protocolelement.redundancy.StreamIdentifier\""
par TestNet.LD2.bridging.streamIdentifier.identifier displayStringTextFormat "\"processed %p pk (%l)\""
par TestNet.LD2.bridging.streamIdentifier.identifier hasSequenceNumbering false
par TestNet.LD2.bridging.streamIdentifier.identifier mapping []
attr mutable ""
scalar TestNet.LD2.bridging.streamIdentifier.identifier outgoingPackets:count 4
attr recordingmode count
attr source "merge(packetPushedOut, packetPulledOut)"
attr title "outgoing packets, count"
attr unit pk
scalar TestNet.LD2.bridging.streamIdentifier.identifier outgoingPacketLengths:sum 41600
attr interpolationmode none
attr recordingmode sum
attr source "packetLength(merge(packetPushedOut, packetPulledOut))"
attr title "outgoing packet lengths, sum"
attr unit b
statistic TestNet.LD2.bridging.streamIdentifier.identifier outgoingPacketLengths:histogram
field count 4
field mean 10400
field stddev 0
field min 10400
field max 10400
field sum 41600
field sqrsum 432640000
attr interpolationmode none
attr recordingmode histogram
attr source "packetLength(merge(packetPushedOut, packetPulledOut))"
attr title "outgoing packet lengths"
attr unit b
bin	-inf	0
bin	10399	0
bin	10400	4
bin	10401	0
scalar TestNet.LD2.bridging.streamIdentifier.identifier flowOutgoingPacketLengths:sum 0
attr interpolationmode none
attr recordingmode sum
attr source "packetLength(demuxFlow(merge(packetPushedOut, packetPulledOut)))"
attr title "flow specific outgoing packet lengths, sum"
attr unit b
statistic TestNet.LD2.bridging.streamIdentifier.identifier flowOutgoingPacketLengths:histogram
field count 0
field mean nan
field stddev nan
field min nan
field max nan
field sum 0
field sqrsum 0
attr interpolationmode none
attr recordingmode histogram
attr source "packetLength(demuxFlow(merge(packetPushedOut, packetPulledOut)))"
attr title "flow specific outgoing packet lengths"
attr unit b
bin	-inf	0
bin	0	0
bin	1	0
scalar TestNet.LD2.bridging.streamIdentifier.identifier incomingPackets:count 4
attr recordingmode count
attr source "merge(packetPushedIn, packetPulledIn)"
attr title "incoming packets, count"
attr unit pk
scalar TestNet.LD2.bridging.streamIdentifier.identifier incomingPacketLengths:sum 41600
attr interpolationmode none
attr recordingmode sum
attr source "packetLength(merge(packetPushedIn, packetPulledIn))"
attr title "incoming packet lengths, sum"
attr unit b
statistic TestNet.LD2.bridging.streamIdentifier.identifier incomingPacketLengths:histogram
field count 4
field mean 10400
field stddev 0
field min 10400
field max 10400
field sum 41600
field sqrsum 432640000
attr interpolationmode none
attr recordingmode histogram
attr source "packetLength(merge(packetPushedIn, packetPulledIn))"
attr title "incoming packet lengths"
attr unit b
bin	-inf	0
bin	10399	0
bin	10400	4
bin	10401	0
scalar TestNet.LD2.bridging.streamIdentifier.identifier flowIncomingPacketLengths:sum 0
attr interpolationmode none
attr recordingmode sum
attr source "packetLength(demuxFlow(merge(packetPushedIn, packetPulledIn)))"
attr title "flow specific incoming packet lengths, sum"
attr unit b
statistic TestNet.LD2.bridging.streamIdentifier.identifier flowIncomingPacketLengths:histogram
field count 0
field mean nan
field stddev nan
field min nan
field max nan
field sum 0
field sqrsum 0
attr interpolationmode none
attr recordingmode histogram
attr source "packetLength(demuxFlow(merge(packetPushedIn, packetPulledIn)))"
attr title "flow specific incoming packet lengths"
attr unit b
bin	-inf	0
bin	0	0
bin	1	0
par TestNet.LD2.bridging.streamIdentifier typename "\"inet.protocolelement.redundancy.StreamIdentifierLayer\""
par TestNet.LD2.bridging.streamCoder.upperLayerIn.channel typename "\"ned.IdealChannel\""
par TestNet.LD2.bridging.streamCoder.encoder.out.channel typename "\"ned.IdealChannel\""
par TestNet.LD2.bridging.streamCoder.lowerLayerIn.channel typename "\"ned.IdealChannel\""
par TestNet.LD2.bridging.streamCoder.decoder.out.channel typename "\"ned.IdealChannel\""
par TestNet.LD2.bridging.streamCoder.decoder typename "\"inet.protocolelement.redundancy.StreamDecoder\""
par TestNet.LD2.bridging.streamCoder.decoder displayStringTextFormat "\"processed %p pk (%l)\""
par TestNet.LD2.bridging.streamCoder.decoder interfaceTableModule "\"TestNet.LD2.interfaceTable\""
par TestNet.LD2.bridging.streamCoder.decoder mapping []
attr mutable ""
scalar TestNet.LD2.bridging.streamCoder.decoder outgoingPackets:count 0
attr recordingmode count
attr source "merge(packetPushedOut, packetPulledOut)"
attr title "outgoing packets, count"
attr unit pk
scalar TestNet.LD2.bridging.streamCoder.decoder outgoingPacketLengths:sum 0
attr interpolationmode none
attr recordingmode sum
attr source "packetLength(merge(packetPushedOut, packetPulledOut))"
attr title "outgoing packet lengths, sum"
attr unit b
statistic TestNet.LD2.bridging.streamCoder.decoder outgoingPacketLengths:histogram
field count 0
field mean nan
field stddev nan
field min nan
field max nan
field sum 0
field sqrsum 0
attr interpolationmode none
attr recordingmode histogram
attr source "packetLength(merge(packetPushedOut, packetPulledOut))"
attr title "outgoing packet lengths"
attr unit b
bin	-inf	0
bin	0	0
bin	1	0
scalar TestNet.LD2.bridging.streamCoder.decoder flowOutgoingPacketLengths:sum 0
attr interpolationmode none
attr recordingmode sum
attr source "packetLength(demuxFlow(merge(packetPushedOut, packetPulledOut)))"
attr title "flow specific outgoing packet lengths, sum"
attr unit b
statistic TestNet.LD2.bridging.streamCoder.decoder flowOutgoingPacketLengths:histogram
field count 0
field mean nan
field stddev nan
field min nan
field max nan
field sum 0
field sqrsum 0
attr interpolationmode none
attr recordingmode histogram
attr source "packetLength(demuxFlow(merge(packetPushedOut, packetPulledOut)))"
attr title "flow specific outgoing packet lengths"
attr unit b
bin	-inf	0
bin	0	0
bin	1	0
scalar TestNet.LD2.bridging.streamCoder.decoder incomingPackets:count 0
attr recordingmode count
attr source "merge(packetPushedIn, packetPulledIn)"
attr title "incoming packets, count"
attr unit pk
scalar TestNet.LD2.bridging.streamCoder.decoder incomingPacketLengths:sum 0
attr interpolationmode none
attr recordingmode sum
attr source "packetLength(merge(packetPushedIn, packetPulledIn))"
attr title "incoming packet lengths, sum"
attr unit b
statistic TestNet.LD2.bridging.streamCoder.decoder incomingPacketLengths:histogram
field count 0
field mean nan
field stddev nan
field min nan
field max nan
field sum 0
field sqrsum 0
attr interpolationmode none
attr recordingmode histogram
attr source "packetLength(merge(packetPushedIn, packetPulledIn))"
attr title "incoming packet lengths"
attr unit b
bin	-inf	0
bin	0	0
bin	1	0
scalar TestNet.LD2.bridging.streamCoder.decoder flowIncomingPacketLengths:sum 0
attr interpolationmode none
attr recordingmode sum
attr source "packetLength(demuxFlow(merge(packetPushedIn, packetPulledIn)))"
[...]
par TestNet.RS1.eth[0].phyLayer.inboundEmitter displayStringTextFormat "\"processed %p pk (%l)\""
par TestNet.RS1.eth[0].phyLayer.inboundEmitter packetFilter "(omnetpp::cValueHolder)holder: \"*\""
par TestNet.RS1.eth[0].phyLayer.inboundEmitter direction "\"inbound\""
attr enum undefined,inbound,outbound
par TestNet.RS1.eth[0].phyLayer.inboundEmitter signalName "\"packetReceivedFromLower\""
scalar TestNet.RS1.eth[0].phyLayer.inboundEmitter outgoingPackets:count 147
attr recordingmode count
attr source "merge(packetPushedOut, packetPulledOut)"
attr title "outgoing packets, count"
attr unit pk
scalar TestNet.RS1.eth[0].phyLayer.inboundEmitter outgoingPacketLengths:sum 129360
attr interpolationmode none
attr recordingmode sum
attr source "packetLength(merge(packetPushedOut, packetPulledOut))"
attr title "outgoing packet lengths, sum"
attr unit b
statistic TestNet.RS1.eth[0].phyLayer.inboundEmitter outgoingPacketLengths:histogram
field count 147
field mean 880
field stddev 0
field min 880
field max 880
field sum 129360
field sqrsum 113836800
attr interpolationmode none
attr recordingmode histogram
attr source "packetLength(merge(packetPushedOut, packetPulledOut))"
attr title "outgoing packet lengths"
attr unit b
bin	-inf	0
bin	879	0
bin	880	147
bin	881	0
scalar TestNet.RS1.eth[0].phyLayer.inboundEmitter flowOutgoingPacketLengths:sum 0
attr interpolationmode none
attr recordingmode sum
attr source "packetLength(demuxFlow(merge(packetPushedOut, packetPulledOut)))"
attr title "flow specific outgoing packet lengths, sum"
attr unit b
statistic TestNet.RS1.eth[0].phyLayer.inboundEmitter flowOutgoingPacketLengths:histogram
field count 0
field mean nan
field stddev nan
field min nan
field max nan
field sum 0
field sqrsum 0
attr interpolationmode none
attr recordingmode histogram
attr source "packetLength(demuxFlow(merge(packetPushedOut, packetPulledOut)))"
attr title "flow specific outgoing packet lengths"
attr unit b
bin	-inf	0
bin	0	0
bin	1	0
scalar TestNet.RS1.eth[0].phyLayer.inboundEmitter incomingPackets:count 147
attr recordingmode count
attr source "merge(packetPushedIn, packetPulledIn)"
attr title "incoming packets, count"
attr unit pk
scalar TestNet.RS1.eth[0].phyLayer.inboundEmitter incomingPacketLengths:sum 129360
attr interpolationmode none
attr recordingmode sum
attr source "packetLength(merge(packetPushedIn, packetPulledIn))"
attr title "incoming packet lengths, sum"
attr unit b
statistic TestNet.RS1.eth[0].phyLayer.inboundEmitter incomingPacketLengths:histogram
field count 147
field mean 880
field stddev 0
field min 880
field max 880
field sum 129360
field sqrsum 113836800
attr interpolationmode none
attr recordingmode histogram
attr source "packetLength(merge(packetPushedIn, packetPulledIn))"
attr title "incoming packet lengths"
attr unit b
bin	-inf	0
bin	879	0
bin	880	147
bin	881	0
scalar TestNet.RS1.eth[0].phyLayer.inboundEmitter flowIncomingPacketLengths:sum 0
attr interpolationmode none
attr recordingmode sum
attr source "packetLength(demuxFlow(merge(packetPushedIn, packetPulledIn)))"
attr title "flow specific incoming packet lengths, sum"
attr unit b
statistic TestNet.RS1.eth[0].phyLayer.inboundEmitter flowIncomingPacketLengths:histogram
field count 0
field mean nan
field stddev nan
field min nan
field max nan
field sum 0
field sqrsum 0
attr interpolationmode none
attr recordingmode histogram
attr source "packetLength(demuxFlow(merge(packetPushedIn, packetPulledIn)))"
attr title "flow specific incoming packet lengths"
attr unit b
bin	-inf	0
bin	0	0
bin	1	0
par TestNet.RS1.eth[0].phyLayer.receiver typename "\"inet.protocolelement.transceiver.PacketReceiver\""
par TestNet.RS1.eth[0].phyLayer.receiver displayStringTextFormat "\"processed %p pk (%l)\""
par TestNet.RS1.eth[0].phyLayer.receiver datarate 1e+08bps
attr unit bps
statistic TestNet.RS1.eth[0].phyLayer.receiver receptionTime:histogram
field count 147
field mean 8.8e-06
field stddev 0
field min 8.8e-06
field max 8.8e-06
field sum 0.0012936
field sqrsum 1.138368e-08
attr interpolationmode none
attr recordingmode histogram
attr source packetDuration(receptionEnded)
attr title "reception time"
attr unit s
bin	-inf	0
bin	0	147
bin	0.01	0
bin	0.02	0
bin	0.03	0
bin	0.04	0
bin	0.05	0
bin	0.06	0
bin	0.07	0
bin	0.08	0
bin	0.09	0
bin	0.1	0
bin	0.11	0
bin	0.12	0
bin	0.13	0
bin	0.14	0
bin	0.15	0
bin	0.16	0
bin	0.17	0
bin	0.18	0
bin	0.19	0
bin	0.2	0
bin	0.21	0
bin	0.22	0
bin	0.23	0
bin	0.24	0
bin	0.25	0
bin	0.26	0
bin	0.27	0
bin	0.28	0
bin	0.29	0
bin	0.3	0
bin	0.31	0
bin	0.32	0
bin	0.33	0
bin	0.34	0
bin	0.35	0
bin	0.36	0
bin	0.37	0
bin	0.38	0
bin	0.39	0
bin	0.4	0
bin	0.41	0
bin	0.42	0
bin	0.43	0
bin	0.44	0
bin	0.45	0
bin	0.46	0
bin	0.47	0
bin	0.48	0
bin	0.49	0
bin	0.5	0
bin	0.51	0
statistic TestNet.RS1.eth[0].phyLayer.receiver flowReceptionTime:histogram
field count 0
field mean nan
field stddev nan
field min nan
field max nan
field sum 0
field sqrsum 0
attr interpolationmode none
attr recordingmode histogram
attr source packetDuration(demuxFlow(receptionEnded))
attr title "flow reception time"
attr unit s
bin	-inf	0
bin	0	0
bin	1	0
par TestNet.RS1.eth[0].phyLayer typename "\"inet.physicallayer.wired.ethernet.EthernetPhyLayer\""
par TestNet.RS1.eth[0].phyLayer bitrate this.bitrate
attr unit bps
par TestNet.RS1.eth[0] typename "\"inet.linklayer.ethernet.LayeredEthernetInterface\""
par TestNet.RS1.eth[0] displayStringTextFormat "\"%a (%i)\\n%m\""
par TestNet.RS1.eth[0] recordPcap false
par TestNet.RS1.eth[0] numPcapRecorders 0
par TestNet.RS1.eth[0] protocol "\"ethernetmac\""
par TestNet.RS1.eth[0] broadcast true
par TestNet.RS1.eth[0] multicast true
par TestNet.RS1.eth[0] address "\"0A-AA-00-00-00-26\""
attr mutable ""
par TestNet.RS1.eth[0] bitrate 1e+08bps
attr unit bps
par TestNet.RS1.eth[0] mtu 1500B
attr unit B
par TestNet.RS1.eth[0] interfaceTableModule "\"TestNet.RS1.interfaceTable\""
scalar TestNet.RS1.eth[0] packetDropInterfaceDown:count 0
attr interpolationmode none
attr recordingmode count
attr source packetDropReasonIsInterfaceDown(packetDropped)
attr title "packet drops: interface down, count"
scalar TestNet.RS1.eth[0] packetDropInterfaceDown:sum(packetBytes) 0
attr interpolationmode none
attr recordingmode sum(packetBytes)
attr source packetDropReasonIsInterfaceDown(packetDropped)
attr title "packet drops: interface down, sum(packetBytes)"
scalar TestNet.RS1.eth[0] packetDropNoCarrier:count 0
attr interpolationmode none
attr recordingmode count
attr source packetDropReasonIsNoCarrier(packetDropped)
attr title "packet drops: no carrier, count"
scalar TestNet.RS1.eth[0] packetDropNoCarrier:sum(packetBytes) 0
attr interpolationmode none
attr recordingmode sum(packetBytes)
attr source packetDropReasonIsNoCarrier(packetDropped)
attr title "packet drops: no carrier, sum(packetBytes)"
par TestNet.RS1.ipv4.transportIn.channel typename "\"ned.IdealChannel\""
par TestNet.RS1.ipv4.up.out[0].channel typename "\"ned.IdealChannel\""
par TestNet.RS1.ipv4.lp.out[2].channel typename "\"ned.IdealChannel\""
par TestNet.RS1.ipv4.ifIn.channel typename "\"ned.IdealChannel\""
par TestNet.RS1.ipv4.configurator typename "\"inet.networklayer.configurator.ipv4.Ipv4NodeConfigurator\""
par TestNet.RS1.ipv4.configurator interfaceTableModule "\"TestNet.RS1.interfaceTable\""
par TestNet.RS1.ipv4.configurator routingTableModule "\"TestNet.RS1.ipv4.routingTable\""
par TestNet.RS1.ipv4.configurator networkConfiguratorModule "\"configurator\""
par TestNet.RS1.ipv4.configurator configureRoutingTable true
par TestNet.RS1.ipv4.routingTable typename "\"inet.networklayer.ipv4.Ipv4RoutingTable\""
par TestNet.RS1.ipv4.routingTable interfaceTableModule "\"TestNet.RS1.interfaceTable\""
par TestNet.RS1.ipv4.routingTable routerId "\"auto\""
par TestNet.RS1.ipv4.routingTable netmaskRoutes "\"*\""
par TestNet.RS1.ipv4.routingTable forwarding false
par TestNet.RS1.ipv4.routingTable multicastForwarding false
par TestNet.RS1.ipv4.routingTable useAdminDist false
par TestNet.RS1.ipv4.routingTable routingFile "\"\""
par TestNet.RS1.ipv4.natTable typename "\"inet.networklayer.ipv4.Ipv4NatTable\""
par TestNet.RS1.ipv4.natTable networkProtocolModule "\"^.ip\""
par TestNet.RS1.ipv4.natTable config "<config/> at content:1"
par TestNet.RS1.ipv4.up typename "\"inet.common.MessageDispatcher\""
par TestNet.RS1.ipv4.up displayStringTextFormat "\"processed %p pk (%l)\""
par TestNet.RS1.ipv4.up forwardServiceRegistration true
par TestNet.RS1.ipv4.up forwardProtocolRegistration true
par TestNet.RS1.ipv4.igmp typename "\"inet.networklayer.ipv4.Igmpv2\""
par TestNet.RS1.ipv4.igmp interfaceTableModule "\"TestNet.RS1.interfaceTable\""
par TestNet.RS1.ipv4.igmp routingTableModule "\"TestNet.RS1.ipv4.routingTable\""
par TestNet.RS1.ipv4.igmp crcMode "\"declared\""
attr enum declared,computed
par TestNet.RS1.ipv4.igmp enabled true
par TestNet.RS1.ipv4.igmp robustnessVariable 2
par TestNet.RS1.ipv4.igmp queryInterval 125s
attr unit s
par TestNet.RS1.ipv4.igmp queryResponseInterval 10s
attr unit s
par TestNet.RS1.ipv4.igmp groupMembershipInterval 260s
attr unit s
par TestNet.RS1.ipv4.igmp otherQuerierPresentInterval 255s
attr unit s
par TestNet.RS1.ipv4.igmp startupQueryInterval 31.25s
attr unit s
par TestNet.RS1.ipv4.igmp startupQueryCount 2
par TestNet.RS1.ipv4.igmp lastMemberQueryInterval 1s
attr unit s
par TestNet.RS1.ipv4.igmp lastMemberQueryCount 2
par TestNet.RS1.ipv4.igmp unsolicitedReportInterval 10s
attr unit s
par TestNet.RS1.ipv4.icmp typename "\"inet.networklayer.ipv4.Icmp\""
par TestNet.RS1.ipv4.icmp interfaceTableModule "\"TestNet.RS1.interfaceTable\""
par TestNet.RS1.ipv4.icmp routingTableModule "\"TestNet.RS1.ipv4.routingTable\""
par TestNet.RS1.ipv4.icmp crcMode "\"declared\""
attr enum declared,computed
attr mutable ""
par TestNet.RS1.ipv4.icmp quoteLength 8B
attr mutable ""
attr unit B
par TestNet.RS1.ipv4.mp typename "\"inet.common.MessageDispatcher\""
par TestNet.RS1.ipv4.mp displayStringTextFormat "\"processed %p pk (%l)\""
par TestNet.RS1.ipv4.mp forwardServiceRegistration true
par TestNet.RS1.ipv4.mp forwardProtocolRegistration true
par TestNet.RS1.ipv4.ip typename "\"inet.networklayer.ipv4.Ipv4\""
par TestNet.RS1.ipv4.ip interfaceTableModule "\"TestNet.RS1.interfaceTable\""
par TestNet.RS1.ipv4.ip routingTableModule "\"TestNet.RS1.ipv4.routingTable\""
par TestNet.RS1.ipv4.ip arpModule "\"TestNet.RS1.ipv4.arp\""
par TestNet.RS1.ipv4.ip icmpModule "\"TestNet.RS1.ipv4.icmp\""
par TestNet.RS1.ipv4.ip crcMode "\"declared\""
attr enum declared,computed
par TestNet.RS1.ipv4.ip timeToLive 32
par TestNet.RS1.ipv4.ip multicastTimeToLive 32
par TestNet.RS1.ipv4.ip fragmentTimeout 60s
attr unit s
par TestNet.RS1.ipv4.ip limitedBroadcast false
par TestNet.RS1.ipv4.ip directBroadcastInterfaces "\"\""
scalar TestNet.RS1.ipv4.ip packetDropAddressResolutionFailed:count 0
attr interpolationmode none
attr recordingmode count
attr source packetDropReasonIsAddressResolutionFailed(packetDropped)
attr title "packet drop: address resolution failed, count"
scalar TestNet.RS1.ipv4.ip packetDropAddressResolutionFailed:sum(packetBytes) 0
attr interpolationmode none
attr recordingmode sum(packetBytes)
attr source packetDropReasonIsAddressResolutionFailed(packetDropped)
attr title "packet drop: address resolution failed, sum(packetBytes)"
scalar TestNet.RS1.ipv4.ip packetDropHopLimitReached:count 0
attr interpolationmode none
attr recordingmode count
attr source packetDropReasonIsHopLimitReached(packetDropped)
attr title "packet drop: hop limit reached, count"
scalar TestNet.RS1.ipv4.ip packetDropHopLimitReached:sum(packetBytes) 0
attr interpolationmode none
attr recordingmode sum(packetBytes)
attr source packetDropReasonIsHopLimitReached(packetDropped)
attr title "packet drop: hop limit reached, sum(packetBytes)"
scalar TestNet.RS1.ipv4.ip packetDropForwardingDisabled:count 0
attr interpolationmode none
attr recordingmode count
attr source packetDropReasonIsForwardingDisabled(packetDropped)
attr title "packet drop: forwarding disabled, count"
scalar TestNet.RS1.ipv4.ip packetDropForwardingDisabled:sum(packetBytes) 0
attr interpolationmode none
attr recordingmode sum(packetBytes)
attr source packetDropReasonIsForwardingDisabled(packetDropped)
attr title "packet drop: forwarding disabled, sum(packetBytes)"
scalar TestNet.RS1.ipv4.ip packetDropNoInterfaceFound:count 0
attr interpolationmode none
attr recordingmode count
attr source packetDropReasonIsNoInterfaceFound(packetDropped)
attr title "packet drop: no interface found, count"
scalar TestNet.RS1.ipv4.ip packetDropNoInterfaceFound:sum(packetBytes) 0
attr interpolationmode none
attr recordingmode sum(packetBytes)
attr source packetDropReasonIsNoInterfaceFound(packetDropped)
attr title "packet drop: no interface found, sum(packetBytes)"
scalar TestNet.RS1.ipv4.ip packetDropNoRouteFound:count 0
attr interpolationmode none
attr recordingmode count
attr source packetDropReasonIsNoRouteFound(packetDropped)
attr title "packet drop: no route found, count"
scalar TestNet.RS1.ipv4.ip packetDropNoRouteFound:sum(packetBytes) 0
attr interpolationmode none
attr recordingmode sum(packetBytes)
attr source packetDropReasonIsNoRouteFound(packetDropped)
attr title "packet drop: no route found, sum(packetBytes)"
scalar TestNet.RS1.ipv4.ip packetDropUndefined:count 0
attr interpolationmode none
attr recordingmode count
attr source packetDropReasonIsUndefined(packetDropped)
attr title "packet drop: undefined, count"
scalar TestNet.RS1.ipv4.ip packetDropUndefined:sum(packetBytes) 0
attr interpolationmode none
attr recordingmode sum(packetBytes)
attr source packetDropReasonIsUndefined(packetDropped)
attr title "packet drop: undefined, sum(packetBytes)"
par TestNet.RS1.ipv4.arp typename "\"inet.networklayer.arp.ipv4.GlobalArp\""
par TestNet.RS1.ipv4.arp interfaceTableModule "\"TestNet.RS1.interfaceTable\""
par TestNet.RS1.ipv4.arp addressType "\"ipv4\""
attr enum ipv4,ipv6,mac,moduleid,modulepath
par TestNet.RS1.ipv4.lp typename "\"inet.common.MessageDispatcher\""
par TestNet.RS1.ipv4.lp displayStringTextFormat "\"processed %p pk (%l)\""
par TestNet.RS1.ipv4.lp forwardServiceRegistration true
par TestNet.RS1.ipv4.lp forwardProtocolRegistration true
par TestNet.RS1.ipv4 typename "\"inet.networklayer.ipv4.Ipv4NetworkLayer\""
par TestNet.RS1.ipv4 forwarding false
par TestNet.RS1.ipv4 multicastForwarding false
par TestNet.RS1.ipv4 interfaceTableModule "\"TestNet.RS1.interfaceTable\""
par TestNet.RS1.ipv4 displayStringTextFormat "\"%i\""
par TestNet.RS1.generic typename "\"elaborato2024.application.TSNNetLayer\""
par TestNet.RS1.nl typename "\"inet.common.MessageDispatcher\""
par TestNet.RS1.nl displayStringTextFormat "\"processed %p pk (%l)\""
par TestNet.RS1.nl forwardServiceRegistration true
par TestNet.RS1.nl forwardProtocolRegistration true
par TestNet.RS1.udp typename "\"inet.transportlayer.udp.Udp\""
par TestNet.RS1.udp interfaceTableModule "\"TestNet.RS1.interfaceTable\""
par TestNet.RS1.udp icmpModule "\"^.ipv4.icmp\""
par TestNet.RS1.udp icmpv6Module "\"^.ipv6.icmpv6\""
par TestNet.RS1.udp crcMode "\"declared\""
attr enum disabled,declared,computed
par TestNet.RS1.udp defaultMulticastLoop true
scalar TestNet.RS1.udp packetReceived:count 0
attr interpolationmode none
attr recordingmode count
attr source packetReceived
attr title "packets received, count"
scalar TestNet.RS1.udp packetReceived:sum(packetBytes) 0
attr interpolationmode none
attr recordingmode sum(packetBytes)
attr source packetReceived
attr title "packets received, sum(packetBytes)"
scalar TestNet.RS1.udp packetSent:count 0
attr interpolationmode none
attr recordingmode count
attr source packetSent
attr title "packets sent, count"
scalar TestNet.RS1.udp packetSent:sum(packetBytes) 0
attr interpolationmode none
attr recordingmode sum(packetBytes)
attr source packetSent
attr title "packets sent, sum(packetBytes)"
scalar TestNet.RS1.udp passedUpPk:count 0
attr interpolationmode none
attr recordingmode count
attr source packetSentToUpper
attr title "packets passed up, count"
scalar TestNet.RS1.udp droppedPkWrongPort:count 0
attr interpolationmode none
attr recordingmode count
attr source packetDropReasonIsNoPortFound(packetDropped)
attr title "packets dropped (wrong port), count"
scalar TestNet.RS1.udp droppedPkBadChecksum:count 0
attr interpolationmode none
attr recordingmode count
attr source packetDropReasonIsIncorrectlyReceived(packetDropped)
attr title "packets dropped (checksum error), count"
par TestNet.RS1.tcp typename "\"inet.transportlayer.tcp.Tcp\""
par TestNet.RS1.tcp crcMode "\"declared\""
attr enum declared,computed
par TestNet.RS1.tcp advertisedWindow 7504
par TestNet.RS1.tcp delayedAcksEnabled false
par TestNet.RS1.tcp nagleEnabled true
par TestNet.RS1.tcp limitedTransmitEnabled false
par TestNet.RS1.tcp increasedIWEnabled false
par TestNet.RS1.tcp sackSupport false
par TestNet.RS1.tcp windowScalingSupport false
par TestNet.RS1.tcp windowScalingFactor -1
par TestNet.RS1.tcp timestampSupport false
par TestNet.RS1.tcp mss 536
par TestNet.RS1.tcp msl 120s
attr unit s
par TestNet.RS1.tcp tcpAlgorithmClass "\"TcpReno\""
attr enum TcpVegas,TcpWestwood,TcpNewReno,TcpReno,TcpTahoe,TcpNoCongestionControl
par TestNet.RS1.tcp useDataNotification false
par TestNet.RS1.tcp dupthresh 3
par TestNet.RS1.tcp initialSsthresh 4294967295
par TestNet.RS1.tcp stopOperationExtraTime 0s
attr unit s
par TestNet.RS1.tcp stopOperationTimeout 2s
attr unit s
par TestNet.RS1.tcp ecnWillingness false
par TestNet.RS1.tcp dctcpGamma 0.0625
par TestNet.RS1.tn typename "\"inet.common.MessageDispatcher\""
par TestNet.RS1.tn displayStringTextFormat "\"processed %p pk (%l)\""
par TestNet.RS1.tn forwardServiceRegistration true
par TestNet.RS1.tn forwardProtocolRegistration true
par TestNet.RS1.app[0] typename "\"elaborato2024.application.EthernetApplication\""
par TestNet.RS1.app[0] startTime -1s
attr unit s
par TestNet.RS1.app[0] period 0s
attr unit s
par TestNet.RS1.app[0] payload 0B
attr unit B
par TestNet.RS1.app[0] vlanid 0
par TestNet.RS1.app[0] priority 0
par TestNet.RS1.app[0] interarrivalTime 0s
attr unit s
par TestNet.RS1.app[0] name "\"Infotainment_RS1\""
par TestNet.RS1.app[0] localAddress "\"\""
par TestNet.RS1.app[0] remoteAddress "\"\""
par TestNet.RS1.app[0] netInterface "\"eth0\""
par TestNet.RS1.app[0] mtu 1500B
attr unit B
par TestNet.RS1.app[0] interfaceTableModule "\"TestNet.RS1.interfaceTable\""
par TestNet.RS1.at typename "\"inet.common.MessageDispatcher\""
par TestNet.RS1.at displayStringTextFormat "\"processed %p pk (%l)\""
par TestNet.RS1.at forwardServiceRegistration true
par TestNet.RS1.at forwardProtocolRegistration true
par TestNet.RS1 typename "\"inet.node.tsn.TsnDevice\""
par TestNet.RS1 hasStatus false
par TestNet.RS1 osgModel "\"\""
par TestNet.RS1 osgModelColor "\"\""
par TestNet.RS1 canvasImage "\"\""
par TestNet.RS1 canvasImageColor "\"\""
par TestNet.RS1 recordPcap false
par TestNet.RS1 numPcapRecorders 0
par TestNet.RS1 numLoInterfaces 1
par TestNet.RS1 numWlanInterfaces 0
par TestNet.RS1 numEthInterfaces 0
par TestNet.RS1 numPppInterfaces 0
par TestNet.RS1 numTunInterfaces 0
par TestNet.RS1 numVirtInterfaces 0
par TestNet.RS1 fcsMode "\"declared\""
attr enum declared,computed
par TestNet.RS1 hasIpv4 true
par TestNet.RS1 hasIpv6 false
par TestNet.RS1 hasGn true
par TestNet.RS1 forwarding false
par TestNet.RS1 multicastForwarding false
par TestNet.RS1 hasUdp true
par TestNet.RS1 hasTcp true
par TestNet.RS1 hasSctp false
par TestNet.RS1 numApps 1
par TestNet.RS1 hasTimeSynchronization false
par TestNet.RS1 hasIngressTrafficFiltering false
par TestNet.RS1 hasEgressTrafficFiltering false
par TestNet.RS1 hasEgressTrafficShaping false
par TestNet.RS1 hasStreamRedundancy false
par TestNet.RS1 hasIncomingStreams false
par TestNet.RS1 hasOutgoingStreams true
par TestNet.RS1 hasFramePreemption false
par TestNet.RS1 hasCutthroughSwitching false
par TestNet typename "\"elaborato2024.simulations.TestNet\""
par TestNet recordPcap false
par TestNet numPcapRecorders 0
par TestNet hasGlobalArp true

