file 49626978 1718226801                                        
version 3
run General-0-20240612-23:10:16-18666
attr configname General
attr datetime 20240612-23:10:16
attr datetimef 20240612-231016
attr experiment General
attr inifile omnetpp.ini
attr iterationvars ""
attr iterationvarsd ""
attr iterationvarsf ""
attr measurement ""
attr network TestNet
attr processid 18666
attr repetition 0
attr replication #0
attr resultdir results
attr runnumber 0
attr seedset 0
config image-path ../../../omnetpp-6.0.3/samples/inet4.5/images
config network TestNet
config **.app[*].typename EthernetApplication
config **.LD1.numApps 1
config **.LD1.app[0].name "\"Adas_LD1\""
config **.LD1.app[0].period 1.4ms
config **.LD1.app[0].payload 1300B
config **.LD1.app[0].startTime 1s
config **.LD1.app[0].priority 10
config **.LD1.app[0].remoteAddress "\"CU\""
config **.LD2.numApps 1
config **.LD2.app[0].name "\"Adas_LD2\""
config **.LD2.app[0].period 1.4ms
config **.LD2.app[0].payload 1300B
config **.LD2.app[0].startTime 1s
config **.LD2.app[0].priority 10
config **.LD2.app[0].remoteAddress "\"CU\""
config **.ME.numApps 6
config **.ME.app[0].name "\"Infotainment_S1\""
config **.ME.app[1].name "\"Infotainment_S2\""
config **.ME.app[2].name "\"Infotainment_S3\""
config **.ME.app[3].name "\"Infotainment_S4\""
config **.ME.app[*].period 250ns
config **.ME.app[*].payload 80B
config **.ME.app[*].startTime 1s
config **.ME.app[*].priority 1
config **.ME.app[0].remoteAddress "\"S1\""
config **.ME.app[1].remoteAddress "\"S2\""
config **.ME.app[2].remoteAddress "\"S3\""
config **.ME.app[3].remoteAddress "\"S4\""
config **.ME.app[4].name "\"Infotainment_RS1\""
config **.ME.app[5].name "\"Infotainment_RS2\""
config **.ME.app[4].period 33.33ms
config **.ME.app[4].payload 178500B
config **.ME.app[5].period 33.33ms
config **.ME.app[5].payload 178500B
config **.US1.numApps 1
config **.US1.app[0].name "\"Adas_US1\""
config **.US1.app[0].period 100ms
config **.US1.app[0].payload 188B
config **.US1.app[0].startTime 1s
config **.US1.app[0].priority 10
config **.US1.app[0].remoteAddress "\"CU\""
config **.US2.numApps 1
config **.US2.app[0].name "\"Adas_US2\""
config **.US2.app[0].period 100ms
config **.US2.app[0].payload 188B
config **.US2.app[0].startTime 1s
config **.US2.app[0].priority 10
config **.US2.app[0].remoteAddress "\"CU\""
config **.US3.numApps 1
config **.US3.app[0].name "\"Adas_US3\""
config **.US3.app[0].period 100ms
config **.US3.app[0].payload 188B
config **.US3.app[0].startTime 1s
config **.US3.app[0].priority 10
config **.US3.app[0].remoteAddress "\"CU\""
config **.US4.numApps 1
config **.US4.app[0].name "\"Adas_US4\""
config **.US4.app[0].period 100ms
config **.US4.app[0].payload 188B
config **.US4.app[0].startTime 1s
config **.US4.app[0].priority 10
config **.US4.app[0].remoteAddress "\"CU\""
config **.CU.numApps 8
config **.CU.app[0].name "\"Adas_LD1\""
config **.CU.app[1].name "\"Adas_LD2\""
config **.CU.app[2].name "\"Adas_US1\""
config **.CU.app[3].name "\"Adas_US2\""
config **.CU.app[4].name "\"Adas_US3\""
config **.CU.app[5].name "\"Adas_US4\""
config **.CU.app[6].name "\"HeadUnitDisplay\""
config **.CU.app[6].period 10ms
config **.CU.app[6].payload 10500B
config **.CU.app[6].startTime 1s
config **.CU.app[6].priority 11
config **.CU.app[6].remoteAddress "\"HU\""
config **.CU.app[7].name "\"Adas_TLM_CU\""
config **.HU.numApps 4
config **.HU.app[0].name "\"HeadUnitDisplay\""
config **.HU.app[1].name "\"Adas_CM1\""
config **.HU.app[2].name "\"Adas_TLM_HU\""
config **.HU.app[3].name "\"Adas_RC\""
config **.CM1.numApps 1
config **.CM1.app[0].name "\"Adas_CM1\""
config **.CM1.app[0].period 16.66ms
config **.CM1.app[0].payload 178500B
config **.CM1.app[0].startTime 1s
config **.CM1.app[0].priority 10
config **.CM1.app[0].remoteAddress "\"HU\""
config **.TLM.numApps 2
config **.TLM.app[0].name "\"Adas_TLM_HU\""
config **.TLM.app[1].name "\"Adas_TLM_CU\""
config **.TLM.app[*].period 625ns
config **.TLM.app[*].payload 600B
config **.TLM.app[*].startTime 1s
config **.TLM.app[*].priority 10
config **.TLM.app[0].remoteAddress "\"HU\""
config **.TLM.app[1].remoteAddress "\"CU\""
config **.RC.numApps 1
config **.RC.app[0].name "\"Adas_RC\""
config **.RC.app[0].period 33.33ms
config **.RC.app[0].payload 178500B
config **.RC.app[0].startTime 1s
config **.RC.app[0].priority 10
config **.RC.app[0].remoteAddress "\"HU\""
config **.RS1.numApps 1
config **.RS1.app[0].name "\"Infotainment_RS1\""
config **.RS2.numApps 1
config **.RS2.app[0].name "\"Infotainment_RS2\""
config **.S1.numApps 1
config **.S1.app[0].name "\"Infotainment_S1\""
config **.S2.numApps 1
config **.S2.app[0].name "\"Infotainment_S2\""
config **.S3.numApps 1
config **.S3.app[0].name "\"Infotainment_S3\""
config **.S4.numApps 1
config **.S4.app[0].name "\"Infotainment_S4\""
config *.*.hasOutgoingStreams true
config **.hasGn true
config **.generic.typename TSNNetLayer
config *.LD2.bridging.streamCoder.encoder.mapping "[{stream: \"Adas_LD1\", pcp: 0}]"
config *.*.eth[*].bitrate 100Mbps
config *.*Switch.hasEgressTrafficShaping true
config *.Switch1.eth[*].macLayer.queue.numTrafficClasses 8
config *.Switch2.eth[*].macLayer.queue.numTrafficClasses 8

vector 0 TestNet.LD2.eth[0].macLayer.queue queueLength:vector ETV
attr autoWarmupFilter false
attr interpolationmode sample-hold
attr recordingmode vector
attr source "warmup(atomic(constant0(packetPushEnded) + count(packetPushStarted) - count(packetPulled) - count(packetRemoved) - count(packetDropped)))"
attr title "queue length"
attr unit pk
vector 1 TestNet.LD2.eth[0].macLayer.queue queueBitLength:vector ETV
attr autoWarmupFilter false
attr interpolationmode sample-hold
attr recordingmode vector
attr source "warmup(atomic(constant0(packetPushEnded) + sum(packetLength(packetPushStarted)) - sum(packetLength(packetPulled)) - sum(packetLength(packetRemoved)) - sum(packetLength(packetDropped))))"
attr title "queue bit length"
attr unit b
vector 2 TestNet.LD2.eth[0].phyLayer.interFrameGapInserter interpacketGap:vector ETV
attr interpolationmode sample-hold
attr recordingmode vector
attr source "count(interpacketGapStarted) - count(interpacketGapEnded)"
attr title "interpacket gap state"
attr type int
vector 3 TestNet.LD2.eth[0].phyLayer.transmitter transmitting:vector ETV
attr interpolationmode sample-hold
attr recordingmode vector
attr source "count(transmissionStarted) - count(transmissionEnded)"
attr title "transmitting state"
attr type int
vector 4 TestNet.LD2.udp passedUpPk:vector(count) ETV
attr interpolationmode none
attr recordingmode vector(count)
attr source packetSentToUpper
attr title "packets passed up, count"
vector 5 TestNet.LD2.udp droppedPkWrongPort:vector(count) ETV
attr interpolationmode none
attr recordingmode vector(count)
attr source packetDropReasonIsNoPortFound(packetDropped)
attr title "packets dropped (wrong port), count"
vector 6 TestNet.LD2.udp droppedPkBadChecksum:vector(count) ETV
attr interpolationmode none
attr recordingmode vector(count)
attr source packetDropReasonIsIncorrectlyReceived(packetDropped)
attr title "packets dropped (checksum error), count"
vector 7 TestNet.US2.eth[0].macLayer.queue queueLength:vector ETV
attr autoWarmupFilter false
attr interpolationmode sample-hold
attr recordingmode vector
attr source "warmup(atomic(constant0(packetPushEnded) + count(packetPushStarted) - count(packetPulled) - count(packetRemoved) - count(packetDropped)))"
attr title "queue length"
attr unit pk
vector 8 TestNet.US2.eth[0].macLayer.queue queueBitLength:vector ETV
attr autoWarmupFilter false
attr interpolationmode sample-hold
attr recordingmode vector
attr source "warmup(atomic(constant0(packetPushEnded) + sum(packetLength(packetPushStarted)) - sum(packetLength(packetPulled)) - sum(packetLength(packetRemoved)) - sum(packetLength(packetDropped))))"
attr title "queue bit length"
attr unit b
vector 9 TestNet.US2.eth[0].phyLayer.interFrameGapInserter interpacketGap:vector ETV
attr interpolationmode sample-hold
attr recordingmode vector
attr source "count(interpacketGapStarted) - count(interpacketGapEnded)"
attr title "interpacket gap state"
attr type int
vector 10 TestNet.US2.eth[0].phyLayer.transmitter transmitting:vector ETV
attr interpolationmode sample-hold
attr recordingmode vector
attr source "count(transmissionStarted) - count(transmissionEnded)"
attr title "transmitting state"
attr type int
vector 11 TestNet.US2.udp passedUpPk:vector(count) ETV
attr interpolationmode none
attr recordingmode vector(count)
attr source packetSentToUpper
attr title "packets passed up, count"
vector 12 TestNet.US2.udp droppedPkWrongPort:vector(count) ETV
attr interpolationmode none
attr recordingmode vector(count)
attr source packetDropReasonIsNoPortFound(packetDropped)
attr title "packets dropped (wrong port), count"
vector 13 TestNet.US2.udp droppedPkBadChecksum:vector(count) ETV
attr interpolationmode none
attr recordingmode vector(count)
attr source packetDropReasonIsIncorrectlyReceived(packetDropped)
attr title "packets dropped (checksum error), count"
vector 14 TestNet.CM1.eth[0].macLayer.queue queueLength:vector ETV
attr autoWarmupFilter false
attr interpolationmode sample-hold
attr recordingmode vector
attr source "warmup(atomic(constant0(packetPushEnded) + count(packetPushStarted) - count(packetPulled) - count(packetRemoved) - count(packetDropped)))"
attr title "queue length"
attr unit pk
vector 15 TestNet.CM1.eth[0].macLayer.queue queueBitLength:vector ETV
attr autoWarmupFilter false
attr interpolationmode sample-hold
attr recordingmode vector
attr source "warmup(atomic(constant0(packetPushEnded) + sum(packetLength(packetPushStarted)) - sum(packetLength(packetPulled)) - sum(packetLength(packetRemoved)) - sum(packetLength(packetDropped))))"
attr title "queue bit length"
attr unit b
vector 16 TestNet.CM1.eth[0].phyLayer.interFrameGapInserter interpacketGap:vector ETV
attr interpolationmode sample-hold
attr recordingmode vector
attr source "count(interpacketGapStarted) - count(interpacketGapEnded)"
attr title "interpacket gap state"
attr type int
vector 17 TestNet.CM1.eth[0].phyLayer.transmitter transmitting:vector ETV
attr interpolationmode sample-hold
attr recordingmode vector
attr source "count(transmissionStarted) - count(transmissionEnded)"
attr title "transmitting state"
attr type int
vector 18 TestNet.CM1.udp passedUpPk:vector(count) ETV
attr interpolationmode none
attr recordingmode vector(count)
attr source packetSentToUpper
attr title "packets passed up, count"
vector 19 TestNet.CM1.udp droppedPkWrongPort:vector(count) ETV
attr interpolationmode none
attr recordingmode vector(count)
attr source packetDropReasonIsNoPortFound(packetDropped)
attr title "packets dropped (wrong port), count"
vector 20 TestNet.CM1.udp droppedPkBadChecksum:vector(count) ETV
attr interpolationmode none
attr recordingmode vector(count)
attr source packetDropReasonIsIncorrectlyReceived(packetDropped)
attr title "packets dropped (checksum error), count"
vector 21 TestNet.LD1.eth[0].macLayer.queue queueLength:vector ETV
attr autoWarmupFilter false
attr interpolationmode sample-hold
attr recordingmode vector
attr source "warmup(atomic(constant0(packetPushEnded) + count(packetPushStarted) - count(packetPulled) - count(packetRemoved) - count(packetDropped)))"
attr title "queue length"
attr unit pk
vector 22 TestNet.LD1.eth[0].macLayer.queue queueBitLength:vector ETV
attr autoWarmupFilter false
attr interpolationmode sample-hold
attr recordingmode vector
attr source "warmup(atomic(constant0(packetPushEnded) + sum(packetLength(packetPushStarted)) - sum(packetLength(packetPulled)) - sum(packetLength(packetRemoved)) - sum(packetLength(packetDropped))))"
attr title "queue bit length"
attr unit b
vector 23 TestNet.LD1.eth[0].phyLayer.interFrameGapInserter interpacketGap:vector ETV
attr interpolationmode sample-hold
attr recordingmode vector
attr source "count(interpacketGapStarted) - count(interpacketGapEnded)"
attr title "interpacket gap state"
attr type int
vector 24 TestNet.LD1.eth[0].phyLayer.transmitter transmitting:vector ETV
attr interpolationmode sample-hold
attr recordingmode vector
attr source "count(transmissionStarted) - count(transmissionEnded)"
attr title "transmitting state"
attr type int
vector 25 TestNet.LD1.udp passedUpPk:vector(count) ETV
attr interpolationmode none
attr recordingmode vector(count)
attr source packetSentToUpper
attr title "packets passed up, count"
vector 26 TestNet.LD1.udp droppedPkWrongPort:vector(count) ETV
attr interpolationmode none
attr recordingmode vector(count)
attr source packetDropReasonIsNoPortFound(packetDropped)
attr title "packets dropped (wrong port), count"
vector 27 TestNet.LD1.udp droppedPkBadChecksum:vector(count) ETV
attr interpolationmode none
attr recordingmode vector(count)
attr source packetDropReasonIsIncorrectlyReceived(packetDropped)
attr title "packets dropped (checksum error), count"
vector 28 TestNet.US1.eth[0].macLayer.queue queueLength:vector ETV
attr autoWarmupFilter false
attr interpolationmode sample-hold
attr recordingmode vector
attr source "warmup(atomic(constant0(packetPushEnded) + count(packetPushStarted) - count(packetPulled) - count(packetRemoved) - count(packetDropped)))"
attr title "queue length"
attr unit pk
vector 29 TestNet.US1.eth[0].macLayer.queue queueBitLength:vector ETV
attr autoWarmupFilter false
attr interpolationmode sample-hold
attr recordingmode vector
attr source "warmup(atomic(constant0(packetPushEnded) + sum(packetLength(packetPushStarted)) - sum(packetLength(packetPulled)) - sum(packetLength(packetRemoved)) - sum(packetLength(packetDropped))))"
attr title "queue bit length"
attr unit b
vector 30 TestNet.US1.eth[0].phyLayer.interFrameGapInserter interpacketGap:vector ETV
attr interpolationmode sample-hold
attr recordingmode vector
attr source "count(interpacketGapStarted) - count(interpacketGapEnded)"
attr title "interpacket gap state"
attr type int
vector 31 TestNet.US1.eth[0].phyLayer.transmitter transmitting:vector ETV
attr interpolationmode sample-hold
attr recordingmode vector
attr source "count(transmissionStarted) - count(transmissionEnded)"
attr title "transmitting state"
attr type int
vector 32 TestNet.US1.udp passedUpPk:vector(count) ETV
attr interpolationmode none
attr recordingmode vector(count)
attr source packetSentToUpper
attr title "packets passed up, count"
vector 33 TestNet.US1.udp droppedPkWrongPort:vector(count) ETV
attr interpolationmode none
attr recordingmode vector(count)
attr source packetDropReasonIsNoPortFound(packetDropped)
attr title "packets dropped (wrong port), count"
vector 34 TestNet.US1.udp droppedPkBadChecksum:vector(count) ETV
attr interpolationmode none
attr recordingmode vector(count)
attr source packetDropReasonIsIncorrectlyReceived(packetDropped)
attr title "packets dropped (checksum error), count"
vector 35 TestNet.CU.eth[0].macLayer.queue queueLength:vector ETV
attr autoWarmupFilter false
attr interpolationmode sample-hold
attr recordingmode vector
attr source "warmup(atomic(constant0(packetPushEnded) + count(packetPushStarted) - count(packetPulled) - count(packetRemoved) - count(packetDropped)))"
attr title "queue length"
attr unit pk
vector 36 TestNet.CU.eth[0].macLayer.queue queueBitLength:vector ETV
attr autoWarmupFilter false
attr interpolationmode sample-hold
attr recordingmode vector
attr source "warmup(atomic(constant0(packetPushEnded) + sum(packetLength(packetPushStarted)) - sum(packetLength(packetPulled)) - sum(packetLength(packetRemoved)) - sum(packetLength(packetDropped))))"
attr title "queue bit length"
attr unit b
vector 37 TestNet.CU.eth[0].phyLayer.interFrameGapInserter interpacketGap:vector ETV
attr interpolationmode sample-hold
attr recordingmode vector
attr source "count(interpacketGapStarted) - count(interpacketGapEnded)"
attr title "interpacket gap state"
attr type int
vector 38 TestNet.CU.eth[0].phyLayer.transmitter transmitting:vector ETV
attr interpolationmode sample-hold
attr recordingmode vector
attr source "count(transmissionStarted) - count(transmissionEnded)"
attr title "transmitting state"
attr type int
vector 39 TestNet.CU.udp passedUpPk:vector(count) ETV
attr interpolationmode none
attr recordingmode vector(count)
attr source packetSentToUpper
attr title "packets passed up, count"
vector 40 TestNet.CU.udp droppedPkWrongPort:vector(count) ETV
attr interpolationmode none
attr recordingmode vector(count)
attr source packetDropReasonIsNoPortFound(packetDropped)
attr title "packets dropped (wrong port), count"
vector 41 TestNet.CU.udp droppedPkBadChecksum:vector(count) ETV
attr interpolationmode none
attr recordingmode vector(count)
attr source packetDropReasonIsIncorrectlyReceived(packetDropped)
attr title "packets dropped (checksum error), count"
vector 42 TestNet.S2.eth[0].macLayer.queue queueLength:vector ETV
attr autoWarmupFilter false
attr interpolationmode sample-hold
attr recordingmode vector
attr source "warmup(atomic(constant0(packetPushEnded) + count(packetPushStarted) - count(packetPulled) - count(packetRemoved) - count(packetDropped)))"
attr title "queue length"
attr unit pk
vector 43 TestNet.S2.eth[0].macLayer.queue queueBitLength:vector ETV
attr autoWarmupFilter false
attr interpolationmode sample-hold
attr recordingmode vector
attr source "warmup(atomic(constant0(packetPushEnded) + sum(packetLength(packetPushStarted)) - sum(packetLength(packetPulled)) - sum(packetLength(packetRemoved)) - sum(packetLength(packetDropped))))"
attr title "queue bit length"
attr unit b
vector 44 TestNet.S2.eth[0].phyLayer.interFrameGapInserter interpacketGap:vector ETV
attr interpolationmode sample-hold
attr recordingmode vector
attr source "count(interpacketGapStarted) - count(interpacketGapEnded)"
attr title "interpacket gap state"
attr type int
vector 45 TestNet.S2.eth[0].phyLayer.transmitter transmitting:vector ETV
attr interpolationmode sample-hold
attr recordingmode vector
attr source "count(transmissionStarted) - count(transmissionEnded)"
attr title "transmitting state"
attr type int
vector 46 TestNet.S2.udp passedUpPk:vector(count) ETV
attr interpolationmode none
attr recordingmode vector(count)
attr source packetSentToUpper
attr title "packets passed up, count"
vector 47 TestNet.S2.udp droppedPkWrongPort:vector(count) ETV
attr interpolationmode none
attr recordingmode vector(count)
attr source packetDropReasonIsNoPortFound(packetDropped)
attr title "packets dropped (wrong port), count"
vector 48 TestNet.S2.udp droppedPkBadChecksum:vector(count) ETV
attr interpolationmode none
attr recordingmode vector(count)
attr source packetDropReasonIsIncorrectlyReceived(packetDropped)
attr title "packets dropped (checksum error), count"
vector 49 TestNet.S1.eth[0].macLayer.queue queueLength:vector ETV
attr autoWarmupFilter false
attr interpolationmode sample-hold
attr recordingmode vector
attr source "warmup(atomic(constant0(packetPushEnded) + count(packetPushStarted) - count(packetPulled) - count(packetRemoved) - count(packetDropped)))"
attr title "queue length"
attr unit pk
vector 50 TestNet.S1.eth[0].macLayer.queue queueBitLength:vector ETV
attr autoWarmupFilter false
attr interpolationmode sample-hold
attr recordingmode vector
attr source "warmup(atomic(constant0(packetPushEnded) + sum(packetLength(packetPushStarted)) - sum(packetLength(packetPulled)) - sum(packetLength(packetRemoved)) - sum(packetLength(packetDropped))))"
attr title "queue bit length"
attr unit b
vector 51 TestNet.S1.eth[0].phyLayer.interFrameGapInserter interpacketGap:vector ETV
attr interpolationmode sample-hold
attr recordingmode vector
attr source "count(interpacketGapStarted) - count(interpacketGapEnded)"
attr title "interpacket gap state"
attr type int
vector 52 TestNet.S1.eth[0].phyLayer.transmitter transmitting:vector ETV
attr interpolationmode sample-hold
attr recordingmode vector
attr source "count(transmissionStarted) - count(transmissionEnded)"
attr title "transmitting state"
attr type int
vector 53 TestNet.S1.udp passedUpPk:vector(count) ETV
attr interpolationmode none
attr recordingmode vector(count)
attr source packetSentToUpper
attr title "packets passed up, count"
vector 54 TestNet.S1.udp droppedPkWrongPort:vector(count) ETV
attr interpolationmode none
attr recordingmode vector(count)
attr source packetDropReasonIsNoPortFound(packetDropped)
attr title "packets dropped (wrong port), count"
vector 55 TestNet.S1.udp droppedPkBadChecksum:vector(count) ETV
attr interpolationmode none
attr recordingmode vector(count)
attr source packetDropReasonIsIncorrectlyReceived(packetDropped)
attr title "packets dropped (checksum error), count"
vector 56 TestNet.HU.eth[0].macLayer.queue queueLength:vector ETV
attr autoWarmupFilter false
attr interpolationmode sample-hold
attr recordingmode vector
attr source "warmup(atomic(constant0(packetPushEnded) + count(packetPushStarted) - count(packetPulled) - count(packetRemoved) - count(packetDropped)))"
attr title "queue length"
attr unit pk
vector 57 TestNet.HU.eth[0].macLayer.queue queueBitLength:vector ETV
attr autoWarmupFilter false
attr interpolationmode sample-hold
attr recordingmode vector
attr source "warmup(atomic(constant0(packetPushEnded) + sum(packetLength(packetPushStarted)) - sum(packetLength(packetPulled)) - sum(packetLength(packetRemoved)) - sum(packetLength(packetDropped))))"
attr title "queue bit length"
attr unit b
vector 58 TestNet.HU.eth[0].phyLayer.interFrameGapInserter interpacketGap:vector ETV
attr interpolationmode sample-hold
attr recordingmode vector
attr source "count(interpacketGapStarted) - count(interpacketGapEnded)"
attr title "interpacket gap state"
attr type int
vector 59 TestNet.HU.eth[0].phyLayer.transmitter transmitting:vector ETV
attr interpolationmode sample-hold
attr recordingmode vector
attr source "count(transmissionStarted) - count(transmissionEnded)"
attr title "transmitting state"
attr type int
vector 60 TestNet.HU.udp passedUpPk:vector(count) ETV
attr interpolationmode none
attr recordingmode vector(count)
attr source packetSentToUpper
attr title "packets passed up, count"
vector 61 TestNet.HU.udp droppedPkWrongPort:vector(count) ETV
attr interpolationmode none
attr recordingmode vector(count)
attr source packetDropReasonIsNoPortFound(packetDropped)
attr title "packets dropped (wrong port), count"
vector 62 TestNet.HU.udp droppedPkBadChecksum:vector(count) ETV
attr interpolationmode none
attr recordingmode vector(count)
attr source packetDropReasonIsIncorrectlyReceived(packetDropped)
attr title "packets dropped (checksum error), count"
vector 63 TestNet.S4.eth[0].macLayer.queue queueLength:vector ETV
attr autoWarmupFilter false
attr interpolationmode sample-hold
attr recordingmode vector
attr source "warmup(atomic(constant0(packetPushEnded) + count(packetPushStarted) - count(packetPulled) - count(packetRemoved) - count(packetDropped)))"
attr title "queue length"
attr unit pk
vector 64 TestNet.S4.eth[0].macLayer.queue queueBitLength:vector ETV
attr autoWarmupFilter false
attr interpolationmode sample-hold
attr recordingmode vector
attr source "warmup(atomic(constant0(packetPushEnded) + sum(packetLength(packetPushStarted)) - sum(packetLength(packetPulled)) - sum(packetLength(packetRemoved)) - sum(packetLength(packetDropped))))"
attr title "queue bit length"
attr unit b
vector 65 TestNet.S4.eth[0].phyLayer.interFrameGapInserter interpacketGap:vector ETV
attr interpolationmode sample-hold
attr recordingmode vector
attr source "count(interpacketGapStarted) - count(interpacketGapEnded)"
attr title "interpacket gap state"
attr type int
vector 66 TestNet.S4.eth[0].phyLayer.transmitter transmitting:vector ETV
attr interpolationmode sample-hold
attr recordingmode vector
attr source "count(transmissionStarted) - count(transmissionEnded)"
attr title "transmitting state"
attr type int
vector 67 TestNet.S4.udp passedUpPk:vector(count) ETV
attr interpolationmode none
attr recordingmode vector(count)
attr source packetSentToUpper
attr title "packets passed up, count"
vector 68 TestNet.S4.udp droppedPkWrongPort:vector(count) ETV
attr interpolationmode none
attr recordingmode vector(count)
attr source packetDropReasonIsNoPortFound(packetDropped)
attr title "packets dropped (wrong port), count"
vector 69 TestNet.S4.udp droppedPkBadChecksum:vector(count) ETV
attr interpolationmode none
attr recordingmode vector(count)
attr source packetDropReasonIsIncorrectlyReceived(packetDropped)
attr title "packets dropped (checksum error), count"
vector 70 TestNet.Switch1.eth[0].macLayer.queue queueLength:vector ETV
attr autoWarmupFilter false
attr interpolationmode sample-hold
attr recordingmode vector
attr source "warmup(atomic(constant0(packetPushEnded) + count(packetPushStarted) - count(packetPulled) - count(packetRemoved) - count(packetDropped)))"
attr title "queue length"
attr unit pk
vector 71 TestNet.Switch1.eth[0].macLayer.queue queueBitLength:vector ETV
attr autoWarmupFilter false
attr interpolationmode sample-hold
attr recordingmode vector
attr source "warmup(atomic(constant0(packetPushEnded) + sum(packetLength(packetPushStarted)) - sum(packetLength(packetPulled)) - sum(packetLength(packetRemoved)) - sum(packetLength(packetDropped))))"
attr title "queue bit length"
attr unit b
vector 72 TestNet.Switch1.eth[0].phyLayer.interFrameGapInserter interpacketGap:vector ETV
attr interpolationmode sample-hold
attr recordingmode vector
attr source "count(interpacketGapStarted) - count(interpacketGapEnded)"
attr title "interpacket gap state"
attr type int
vector 73 TestNet.Switch1.eth[0].phyLayer.transmitter transmitting:vector ETV
attr interpolationmode sample-hold
attr recordingmode vector
attr source "count(transmissionStarted) - count(transmissionEnded)"
attr title "transmitting state"
attr type int
vector 74 TestNet.Switch1.eth[1].macLayer.queue queueLength:vector ETV
attr autoWarmupFilter false
attr interpolationmode sample-hold
attr recordingmode vector
attr source "warmup(atomic(constant0(packetPushEnded) + count(packetPushStarted) - count(packetPulled) - count(packetRemoved) - count(packetDropped)))"
attr title "queue length"
attr unit pk
vector 75 TestNet.Switch1.eth[1].macLayer.queue queueBitLength:vector ETV
attr autoWarmupFilter false
attr interpolationmode sample-hold
attr recordingmode vector
attr source "warmup(atomic(constant0(packetPushEnded) + sum(packetLength(packetPushStarted)) - sum(packetLength(packetPulled)) - sum(packetLength(packetRemoved)) - sum(packetLength(packetDropped))))"
attr title "queue bit length"
attr unit b
vector 76 TestNet.Switch1.eth[1].phyLayer.interFrameGapInserter interpacketGap:vector ETV
attr interpolationmode sample-hold
attr recordingmode vector
attr source "count(interpacketGapStarted) - count(interpacketGapEnded)"
attr title "interpacket gap state"
attr type int
vector 77 TestNet.Switch1.eth[1].phyLayer.transmitter transmitting:vector ETV
attr interpolationmode sample-hold
attr recordingmode vector
attr source "count(transmissionStarted) - count(transmissionEnded)"
attr title "transmitting state"
attr type int
vector 78 TestNet.Switch1.eth[2].macLayer.queue queueLength:vector ETV
attr autoWarmupFilter false
attr interpolationmode sample-hold
attr recordingmode vector
attr source "warmup(atomic(constant0(packetPushEnded) + count(packetPushStarted) - count(packetPulled) - count(packetRemoved) - count(packetDropped)))"
attr title "queue length"
attr unit pk
vector 79 TestNet.Switch1.eth[2].macLayer.queue queueBitLength:vector ETV
attr autoWarmupFilter false
attr interpolationmode sample-hold
attr recordingmode vector
attr source "warmup(atomic(constant0(packetPushEnded) + sum(packetLength(packetPushStarted)) - sum(packetLength(packetPulled)) - sum(packetLength(packetRemoved)) - sum(packetLength(packetDropped))))"
attr title "queue bit length"
attr unit b
vector 80 TestNet.Switch1.eth[2].phyLayer.interFrameGapInserter interpacketGap:vector ETV
attr interpolationmode sample-hold
attr recordingmode vector
attr source "count(interpacketGapStarted) - count(interpacketGapEnded)"
attr title "interpacket gap state"
attr type int
vector 81 TestNet.Switch1.eth[2].phyLayer.transmitter transmitting:vector ETV
attr interpolationmode sample-hold
attr recordingmode vector
attr source "count(transmissionStarted) - count(transmissionEnded)"
attr title "transmitting state"
attr type int
vector 82 TestNet.Switch1.eth[3].macLayer.queue queueLength:vector ETV
attr autoWarmupFilter false
attr interpolationmode sample-hold
attr recordingmode vector
attr source "warmup(atomic(constant0(packetPushEnded) + count(packetPushStarted) - count(packetPulled) - count(packetRemoved) - count(packetDropped)))"
attr title "queue length"
attr unit pk
vector 83 TestNet.Switch1.eth[3].macLayer.queue queueBitLength:vector ETV
attr autoWarmupFilter false
attr interpolationmode sample-hold
attr recordingmode vector
attr source "warmup(atomic(constant0(packetPushEnded) + sum(packetLength(packetPushStarted)) - sum(packetLength(packetPulled)) - sum(packetLength(packetRemoved)) - sum(packetLength(packetDropped))))"
attr title "queue bit length"
attr unit b
vector 84 TestNet.Switch1.eth[3].phyLayer.interFrameGapInserter interpacketGap:vector ETV
attr interpolationmode sample-hold
attr recordingmode vector
attr source "count(interpacketGapStarted) - count(interpacketGapEnded)"
attr title "interpacket gap state"
attr type int
vector 85 TestNet.Switch1.eth[3].phyLayer.transmitter transmitting:vector ETV
attr interpolationmode sample-hold
attr recordingmode vector
attr source "count(transmissionStarted) - count(transmissionEnded)"
attr title "transmitting state"
attr type int
vector 86 TestNet.Switch1.eth[4].macLayer.queue queueLength:vector ETV
attr autoWarmupFilter false
attr interpolationmode sample-hold
attr recordingmode vector
attr source "warmup(atomic(constant0(packetPushEnded) + count(packetPushStarted) - count(packetPulled) - count(packetRemoved) - count(packetDropped)))"
attr title "queue length"
attr unit pk
vector 87 TestNet.Switch1.eth[4].macLayer.queue queueBitLength:vector ETV
attr autoWarmupFilter false
attr interpolationmode sample-hold
attr recordingmode vector
attr source "warmup(atomic(constant0(packetPushEnded) + sum(packetLength(packetPushStarted)) - sum(packetLength(packetPulled)) - sum(packetLength(packetRemoved)) - sum(packetLength(packetDropped))))"
attr title "queue bit length"
attr unit b
vector 88 TestNet.Switch1.eth[4].phyLayer.interFrameGapInserter interpacketGap:vector ETV
attr interpolationmode sample-hold
attr recordingmode vector
attr source "count(interpacketGapStarted) - count(interpacketGapEnded)"
attr title "interpacket gap state"
attr type int
vector 89 TestNet.Switch1.eth[4].phyLayer.transmitter transmitting:vector ETV
attr interpolationmode sample-hold
attr recordingmode vector
attr source "count(transmissionStarted) - count(transmissionEnded)"
attr title "transmitting state"
attr type int
vector 90 TestNet.Switch1.eth[5].macLayer.queue queueLength:vector ETV
attr autoWarmupFilter false
attr interpolationmode sample-hold
attr recordingmode vector
attr source "warmup(atomic(constant0(packetPushEnded) + count(packetPushStarted) - count(packetPulled) - count(packetRemoved) - count(packetDropped)))"
attr title "queue length"
attr unit pk
vector 91 TestNet.Switch1.eth[5].macLayer.queue queueBitLength:vector ETV
attr autoWarmupFilter false
attr interpolationmode sample-hold
attr recordingmode vector
attr source "warmup(atomic(constant0(packetPushEnded) + sum(packetLength(packetPushStarted)) - sum(packetLength(packetPulled)) - sum(packetLength(packetRemoved)) - sum(packetLength(packetDropped))))"
attr title "queue bit length"
attr unit b
vector 92 TestNet.Switch1.eth[5].phyLayer.interFrameGapInserter interpacketGap:vector ETV
attr interpolationmode sample-hold
attr recordingmode vector
attr source "count(interpacketGapStarted) - count(interpacketGapEnded)"
attr title "interpacket gap state"
attr type int
vector 93 TestNet.Switch1.eth[5].phyLayer.transmitter transmitting:vector ETV
attr interpolationmode sample-hold
attr recordingmode vector
attr source "count(transmissionStarted) - count(transmissionEnded)"
attr title "transmitting state"
attr type int
vector 94 TestNet.Switch1.eth[6].macLayer.queue queueLength:vector ETV
attr autoWarmupFilter false
attr interpolationmode sample-hold
attr recordingmode vector
attr source "warmup(atomic(constant0(packetPushEnded) + count(packetPushStarted) - count(packetPulled) - count(packetRemoved) - count(packetDropped)))"
attr title "queue length"
attr unit pk
vector 95 TestNet.Switch1.eth[6].macLayer.queue queueBitLength:vector ETV
attr autoWarmupFilter false
attr interpolationmode sample-hold
attr recordingmode vector
attr source "warmup(atomic(constant0(packetPushEnded) + sum(packetLength(packetPushStarted)) - sum(packetLength(packetPulled)) - sum(packetLength(packetRemoved)) - sum(packetLength(packetDropped))))"
attr title "queue bit length"
attr unit b
vector 96 TestNet.Switch1.eth[6].phyLayer.interFrameGapInserter interpacketGap:vector ETV
attr interpolationmode sample-hold
attr recordingmode vector
attr source "count(interpacketGapStarted) - count(interpacketGapEnded)"
attr title "interpacket gap state"
attr type int
vector 97 TestNet.Switch1.eth[6].phyLayer.transmitter transmitting:vector ETV
attr interpolationmode sample-hold
attr recordingmode vector
attr source "count(transmissionStarted) - count(transmissionEnded)"
attr title "transmitting state"
attr type int
vector 98 TestNet.Switch1.eth[7].macLayer.queue queueLength:vector ETV
attr autoWarmupFilter false
attr interpolationmode sample-hold
attr recordingmode vector
attr source "warmup(atomic(constant0(packetPushEnded) + count(packetPushStarted) - count(packetPulled) - count(packetRemoved) - count(packetDropped)))"
attr title "queue length"
attr unit pk
vector 99 TestNet.Switch1.eth[7].macLayer.queue queueBitLength:vector ETV
attr autoWarmupFilter false
attr interpolationmode sample-hold
attr recordingmode vector
attr source "warmup(atomic(constant0(packetPushEnded) + sum(packetLength(packetPushStarted)) - sum(packetLength(packetPulled)) - sum(packetLength(packetRemoved)) - sum(packetLength(packetDropped))))"
attr title "queue bit length"
attr unit b
vector 100 TestNet.Switch1.eth[7].phyLayer.interFrameGapInserter interpacketGap:vector ETV
attr interpolationmode sample-hold
attr recordingmode vector
attr source "count(interpacketGapStarted) - count(interpacketGapEnded)"
attr title "interpacket gap state"
attr type int
vector 101 TestNet.Switch1.eth[7].phyLayer.transmitter transmitting:vector ETV
attr interpolationmode sample-hold
attr recordingmode vector
attr source "count(transmissionStarted) - count(transmissionEnded)"
attr title "transmitting state"
attr type int
vector 102 TestNet.Switch1.eth[8].macLayer.queue queueLength:vector ETV
attr autoWarmupFilter false
attr interpolationmode sample-hold
attr recordingmode vector
attr source "warmup(atomic(constant0(packetPushEnded) + count(packetPushStarted) - count(packetPulled) - count(packetRemoved) - count(packetDropped)))"
attr title "queue length"
attr unit pk
vector 103 TestNet.Switch1.eth[8].macLayer.queue queueBitLength:vector ETV
attr autoWarmupFilter false
attr interpolationmode sample-hold
attr recordingmode vector
attr source "warmup(atomic(constant0(packetPushEnded) + sum(packetLength(packetPushStarted)) - sum(packetLength(packetPulled)) - sum(packetLength(packetRemoved)) - sum(packetLength(packetDropped))))"
attr title "queue bit length"
attr unit b
vector 104 TestNet.Switch1.eth[8].phyLayer.interFrameGapInserter interpacketGap:vector ETV
attr interpolationmode sample-hold
attr recordingmode vector
attr source "count(interpacketGapStarted) - count(interpacketGapEnded)"
attr title "interpacket gap state"
attr type int
vector 105 TestNet.Switch1.eth[8].phyLayer.transmitter transmitting:vector ETV
attr interpolationmode sample-hold
attr recordingmode vector
attr source "count(transmissionStarted) - count(transmissionEnded)"
attr title "transmitting state"
attr type int
vector 106 TestNet.Switch1.eth[9].macLayer.queue queueLength:vector ETV
attr autoWarmupFilter false
attr interpolationmode sample-hold
attr recordingmode vector
attr source "warmup(atomic(constant0(packetPushEnded) + count(packetPushStarted) - count(packetPulled) - count(packetRemoved) - count(packetDropped)))"
attr title "queue length"
attr unit pk
vector 107 TestNet.Switch1.eth[9].macLayer.queue queueBitLength:vector ETV
attr autoWarmupFilter false
attr interpolationmode sample-hold
attr recordingmode vector
attr source "warmup(atomic(constant0(packetPushEnded) + sum(packetLength(packetPushStarted)) - sum(packetLength(packetPulled)) - sum(packetLength(packetRemoved)) - sum(packetLength(packetDropped))))"
attr title "queue bit length"
attr unit b
vector 108 TestNet.Switch1.eth[9].phyLayer.interFrameGapInserter interpacketGap:vector ETV
attr interpolationmode sample-hold
attr recordingmode vector
attr source "count(interpacketGapStarted) - count(interpacketGapEnded)"
attr title "interpacket gap state"
attr type int
vector 109 TestNet.Switch1.eth[9].phyLayer.transmitter transmitting:vector ETV
attr interpolationmode sample-hold
attr recordingmode vector
attr source "count(transmissionStarted) - count(transmissionEnded)"
attr title "transmitting state"
attr type int
vector 110 TestNet.Switch2.eth[0].macLayer.queue queueLength:vector ETV
attr autoWarmupFilter false
attr interpolationmode sample-hold
attr recordingmode vector
attr source "warmup(atomic(constant0(packetPushEnded) + count(packetPushStarted) - count(packetPulled) - count(packetRemoved) - count(packetDropped)))"
attr title "queue length"
attr unit pk
vector 111 TestNet.Switch2.eth[0].macLayer.queue queueBitLength:vector ETV
attr autoWarmupFilter false
attr interpolationmode sample-hold
attr recordingmode vector
attr source "warmup(atomic(constant0(packetPushEnded) + sum(packetLength(packetPushStarted)) - sum(packetLength(packetPulled)) - sum(packetLength(packetRemoved)) - sum(packetLength(packetDropped))))"
attr title "queue bit length"
attr unit b
vector 112 TestNet.Switch2.eth[0].phyLayer.interFrameGapInserter interpacketGap:vector ETV
attr interpolationmode sample-hold
attr recordingmode vector
attr source "count(interpacketGapStarted) - count(interpacketGapEnded)"
attr title "interpacket gap state"
attr type int
vector 113 TestNet.Switch2.eth[0].phyLayer.transmitter transmitting:vector ETV
attr interpolationmode sample-hold
attr recordingmode vector
attr source "count(transmissionStarted) - count(transmissionEnded)"
attr title "transmitting state"
attr type int
vector 114 TestNet.Switch2.eth[1].macLayer.queue queueLength:vector ETV
attr autoWarmupFilter false
attr interpolationmode sample-hold
attr recordingmode vector
attr source "warmup(atomic(constant0(packetPushEnded) + count(packetPushStarted) - count(packetPulled) - count(packetRemoved) - count(packetDropped)))"
attr title "queue length"
attr unit pk
vector 115 TestNet.Switch2.eth[1].macLayer.queue queueBitLength:vector ETV
attr autoWarmupFilter false
attr interpolationmode sample-hold
attr recordingmode vector
attr source "warmup(atomic(constant0(packetPushEnded) + sum(packetLength(packetPushStarted)) - sum(packetLength(packetPulled)) - sum(packetLength(packetRemoved)) - sum(packetLength(packetDropped))))"
attr title "queue bit length"
attr unit b
vector 116 TestNet.Switch2.eth[1].phyLayer.interFrameGapInserter interpacketGap:vector ETV
attr interpolationmode sample-hold
attr recordingmode vector
attr source "count(interpacketGapStarted) - count(interpacketGapEnded)"
attr title "interpacket gap state"
attr type int
vector 117 TestNet.Switch2.eth[1].phyLayer.transmitter transmitting:vector ETV
attr interpolationmode sample-hold
attr recordingmode vector
attr source "count(transmissionStarted) - count(transmissionEnded)"
attr title "transmitting state"
attr type int
vector 118 TestNet.Switch2.eth[2].macLayer.queue queueLength:vector ETV
attr autoWarmupFilter false
attr interpolationmode sample-hold
attr recordingmode vector
attr source "warmup(atomic(constant0(packetPushEnded) + count(packetPushStarted) - count(packetPulled) - count(packetRemoved) - count(packetDropped)))"
attr title "queue length"
attr unit pk
vector 119 TestNet.Switch2.eth[2].macLayer.queue queueBitLength:vector ETV
attr autoWarmupFilter false
attr interpolationmode sample-hold
attr recordingmode vector
attr source "warmup(atomic(constant0(packetPushEnded) + sum(packetLength(packetPushStarted)) - sum(packetLength(packetPulled)) - sum(packetLength(packetRemoved)) - sum(packetLength(packetDropped))))"
attr title "queue bit length"
attr unit b
vector 120 TestNet.Switch2.eth[2].phyLayer.interFrameGapInserter interpacketGap:vector ETV
attr interpolationmode sample-hold
attr recordingmode vector
attr source "count(interpacketGapStarted) - count(interpacketGapEnded)"
attr title "interpacket gap state"
attr type int
vector 121 TestNet.Switch2.eth[2].phyLayer.transmitter transmitting:vector ETV
attr interpolationmode sample-hold
attr recordingmode vector
attr source "count(transmissionStarted) - count(transmissionEnded)"
attr title "transmitting state"
attr type int
vector 122 TestNet.Switch2.eth[3].macLayer.queue queueLength:vector ETV
attr autoWarmupFilter false
attr interpolationmode sample-hold
attr recordingmode vector
attr source "warmup(atomic(constant0(packetPushEnded) + count(packetPushStarted) - count(packetPulled) - count(packetRemoved) - count(packetDropped)))"
attr title "queue length"
attr unit pk
vector 123 TestNet.Switch2.eth[3].macLayer.queue queueBitLength:vector ETV
attr autoWarmupFilter false
attr interpolationmode sample-hold
attr recordingmode vector
attr source "warmup(atomic(constant0(packetPushEnded) + sum(packetLength(packetPushStarted)) - sum(packetLength(packetPulled)) - sum(packetLength(packetRemoved)) - sum(packetLength(packetDropped))))"
attr title "queue bit length"
attr unit b
vector 124 TestNet.Switch2.eth[3].phyLayer.interFrameGapInserter interpacketGap:vector ETV
attr interpolationmode sample-hold
attr recordingmode vector
attr source "count(interpacketGapStarted) - count(interpacketGapEnded)"
attr title "interpacket gap state"
attr type int
vector 125 TestNet.Switch2.eth[3].phyLayer.transmitter transmitting:vector ETV
attr interpolationmode sample-hold
attr recordingmode vector
attr source "count(transmissionStarted) - count(transmissionEnded)"
attr title "transmitting state"
attr type int
vector 126 TestNet.Switch2.eth[4].macLayer.queue queueLength:vector ETV
attr autoWarmupFilter false
attr interpolationmode sample-hold
attr recordingmode vector
attr source "warmup(atomic(constant0(packetPushEnded) + count(packetPushStarted) - count(packetPulled) - count(packetRemoved) - count(packetDropped)))"
attr title "queue length"
attr unit pk
vector 127 TestNet.Switch2.eth[4].macLayer.queue queueBitLength:vector ETV
attr autoWarmupFilter false
attr interpolationmode sample-hold
attr recordingmode vector
attr source "warmup(atomic(constant0(packetPushEnded) + sum(packetLength(packetPushStarted)) - sum(packetLength(packetPulled)) - sum(packetLength(packetRemoved)) - sum(packetLength(packetDropped))))"
attr title "queue bit length"
attr unit b
vector 128 TestNet.Switch2.eth[4].phyLayer.interFrameGapInserter interpacketGap:vector ETV
attr interpolationmode sample-hold
attr recordingmode vector
attr source "count(interpacketGapStarted) - count(interpacketGapEnded)"
attr title "interpacket gap state"
attr type int
vector 129 TestNet.Switch2.eth[4].phyLayer.transmitter transmitting:vector ETV
attr interpolationmode sample-hold
attr recordingmode vector
attr source "count(transmissionStarted) - count(transmissionEnded)"
attr title "transmitting state"
attr type int
vector 130 TestNet.Switch2.eth[5].macLayer.queue queueLength:vector ETV
attr autoWarmupFilter false
attr interpolationmode sample-hold
attr recordingmode vector
attr source "warmup(atomic(constant0(packetPushEnded) + count(packetPushStarted) - count(packetPulled) - count(packetRemoved) - count(packetDropped)))"
attr title "queue length"
attr unit pk
vector 131 TestNet.Switch2.eth[5].macLayer.queue queueBitLength:vector ETV
attr autoWarmupFilter false
attr interpolationmode sample-hold
attr recordingmode vector
attr source "warmup(atomic(constant0(packetPushEnded) + sum(packetLength(packetPushStarted)) - sum(packetLength(packetPulled)) - sum(packetLength(packetRemoved)) - sum(packetLength(packetDropped))))"
attr title "queue bit length"
attr unit b
vector 132 TestNet.Switch2.eth[5].phyLayer.interFrameGapInserter interpacketGap:vector ETV
attr interpolationmode sample-hold
attr recordingmode vector
attr source "count(interpacketGapStarted) - count(interpacketGapEnded)"
attr title "interpacket gap state"
attr type int
vector 133 TestNet.Switch2.eth[5].phyLayer.transmitter transmitting:vector ETV
attr interpolationmode sample-hold
attr recordingmode vector
attr source "count(transmissionStarted) - count(transmissionEnded)"
attr title "transmitting state"
attr type int
vector 134 TestNet.Switch2.eth[6].macLayer.queue queueLength:vector ETV
attr autoWarmupFilter false
attr interpolationmode sample-hold
attr recordingmode vector
attr source "warmup(atomic(constant0(packetPushEnded) + count(packetPushStarted) - count(packetPulled) - count(packetRemoved) - count(packetDropped)))"
attr title "queue length"
attr unit pk
vector 135 TestNet.Switch2.eth[6].macLayer.queue queueBitLength:vector ETV
attr autoWarmupFilter false
attr interpolationmode sample-hold
attr recordingmode vector
attr source "warmup(atomic(constant0(packetPushEnded) + sum(packetLength(packetPushStarted)) - sum(packetLength(packetPulled)) - sum(packetLength(packetRemoved)) - sum(packetLength(packetDropped))))"
attr title "queue bit length"
attr unit b
vector 136 TestNet.Switch2.eth[6].phyLayer.interFrameGapInserter interpacketGap:vector ETV
attr interpolationmode sample-hold
attr recordingmode vector
attr source "count(interpacketGapStarted) - count(interpacketGapEnded)"
attr title "interpacket gap state"
attr type int
vector 137 TestNet.Switch2.eth[6].phyLayer.transmitter transmitting:vector ETV
attr interpolationmode sample-hold
attr recordingmode vector
attr source "count(transmissionStarted) - count(transmissionEnded)"
attr title "transmitting state"
attr type int
vector 138 TestNet.Switch2.eth[7].macLayer.queue queueLength:vector ETV
attr autoWarmupFilter false
attr interpolationmode sample-hold
attr recordingmode vector
attr source "warmup(atomic(constant0(packetPushEnded) + count(packetPushStarted) - count(packetPulled) - count(packetRemoved) - count(packetDropped)))"
attr title "queue length"
attr unit pk
vector 139 TestNet.Switch2.eth[7].macLayer.queue queueBitLength:vector ETV
attr autoWarmupFilter false
attr interpolationmode sample-hold
attr recordingmode vector
attr source "warmup(atomic(constant0(packetPushEnded) + sum(packetLength(packetPushStarted)) - sum(packetLength(packetPulled)) - sum(packetLength(packetRemoved)) - sum(packetLength(packetDropped))))"
attr title "queue bit length"
attr unit b
vector 140 TestNet.Switch2.eth[7].phyLayer.interFrameGapInserter interpacketGap:vector ETV
attr interpolationmode sample-hold
attr recordingmode vector
attr source "count(interpacketGapStarted) - count(interpacketGapEnded)"
attr title "interpacket gap state"
attr type int
vector 141 TestNet.Switch2.eth[7].phyLayer.transmitter transmitting:vector ETV
attr interpolationmode sample-hold
attr recordingmode vector
attr source "count(transmissionStarted) - count(transmissionEnded)"
attr title "transmitting state"
attr type int
vector 142 TestNet.Switch2.eth[8].macLayer.queue queueLength:vector ETV
attr autoWarmupFilter false
attr interpolationmode sample-hold
attr recordingmode vector
attr source "warmup(atomic(constant0(packetPushEnded) + count(packetPushStarted) - count(packetPulled) - count(packetRemoved) - count(packetDropped)))"
attr title "queue length"
attr unit pk
vector 143 TestNet.Switch2.eth[8].macLayer.queue queueBitLength:vector ETV
attr autoWarmupFilter false
attr interpolationmode sample-hold
attr recordingmode vector
attr source "warmup(atomic(constant0(packetPushEnded) + sum(packetLength(packetPushStarted)) - sum(packetLength(packetPulled)) - sum(packetLength(packetRemoved)) - sum(packetLength(packetDropped))))"
attr title "queue bit length"
attr unit b
vector 144 TestNet.Switch2.eth[8].phyLayer.interFrameGapInserter interpacketGap:vector ETV
attr interpolationmode sample-hold
attr recordingmode vector
attr source "count(interpacketGapStarted) - count(interpacketGapEnded)"
attr title "interpacket gap state"
attr type int
vector 145 TestNet.Switch2.eth[8].phyLayer.transmitter transmitting:vector ETV
attr interpolationmode sample-hold
attr recordingmode vector
attr source "count(transmissionStarted) - count(transmissionEnded)"
attr title "transmitting state"
attr type int
vector 146 TestNet.Switch2.eth[9].macLayer.queue queueLength:vector ETV
attr autoWarmupFilter false
attr interpolationmode sample-hold
attr recordingmode vector
attr source "warmup(atomic(constant0(packetPushEnded) + count(packetPushStarted) - count(packetPulled) - count(packetRemoved) - count(packetDropped)))"
attr title "queue length"
attr unit pk
vector 147 TestNet.Switch2.eth[9].macLayer.queue queueBitLength:vector ETV
attr autoWarmupFilter false
attr interpolationmode sample-hold
attr recordingmode vector
attr source "warmup(atomic(constant0(packetPushEnded) + sum(packetLength(packetPushStarted)) - sum(packetLength(packetPulled)) - sum(packetLength(packetRemoved)) - sum(packetLength(packetDropped))))"
attr title "queue bit length"
attr unit b
vector 148 TestNet.Switch2.eth[9].phyLayer.interFrameGapInserter interpacketGap:vector ETV
attr interpolationmode sample-hold
attr recordingmode vector
attr source "count(interpacketGapStarted) - count(interpacketGapEnded)"
attr title "interpacket gap state"
attr type int
vector 149 TestNet.Switch2.eth[9].phyLayer.transmitter transmitting:vector ETV
attr interpolationmode sample-hold
attr recordingmode vector
attr source "count(transmissionStarted) - count(transmissionEnded)"
attr title "transmitting state"
attr type int
vector 150 TestNet.S3.eth[0].macLayer.queue queueLength:vector ETV
attr autoWarmupFilter false
attr interpolationmode sample-hold
attr recordingmode vector
attr source "warmup(atomic(constant0(packetPushEnded) + count(packetPushStarted) - count(packetPulled) - count(packetRemoved) - count(packetDropped)))"
attr title "queue length"
attr unit pk
vector 151 TestNet.S3.eth[0].macLayer.queue queueBitLength:vector ETV
attr autoWarmupFilter false
attr interpolationmode sample-hold
attr recordingmode vector
attr source "warmup(atomic(constant0(packetPushEnded) + sum(packetLength(packetPushStarted)) - sum(packetLength(packetPulled)) - sum(packetLength(packetRemoved)) - sum(packetLength(packetDropped))))"
attr title "queue bit length"
attr unit b
vector 152 TestNet.S3.eth[0].phyLayer.interFrameGapInserter interpacketGap:vector ETV
attr interpolationmode sample-hold
attr recordingmode vector
attr source "count(interpacketGapStarted) - count(interpacketGapEnded)"
attr title "interpacket gap state"
attr type int
vector 153 TestNet.S3.eth[0].phyLayer.transmitter transmitting:vector ETV
attr interpolationmode sample-hold
attr recordingmode vector
attr source "count(transmissionStarted) - count(transmissionEnded)"
attr title "transmitting state"
attr type int
vector 154 TestNet.S3.udp passedUpPk:vector(count) ETV
attr interpolationmode none
attr recordingmode vector(count)
attr source packetSentToUpper
attr title "packets passed up, count"
vector 155 TestNet.S3.udp droppedPkWrongPort:vector(count) ETV
attr interpolationmode none
attr recordingmode vector(count)
attr source packetDropReasonIsNoPortFound(packetDropped)
attr title "packets dropped (wrong port), count"
vector 156 TestNet.S3.udp droppedPkBadChecksum:vector(count) ETV
attr interpolationmode none
attr recordingmode vector(count)
attr source packetDropReasonIsIncorrectlyReceived(packetDropped)
attr title "packets dropped (checksum error), count"
vector 157 TestNet.RC.eth[0].macLayer.queue queueLength:vector ETV
attr autoWarmupFilter false
attr interpolationmode sample-hold
attr recordingmode vector
attr source "warmup(atomic(constant0(packetPushEnded) + count(packetPushStarted) - count(packetPulled) - count(packetRemoved) - count(packetDropped)))"
attr title "queue length"
attr unit pk
vector 158 TestNet.RC.eth[0].macLayer.queue queueBitLength:vector ETV
attr autoWarmupFilter false
attr interpolationmode sample-hold
attr recordingmode vector
attr source "warmup(atomic(constant0(packetPushEnded) + sum(packetLength(packetPushStarted)) - sum(packetLength(packetPulled)) - sum(packetLength(packetRemoved)) - sum(packetLength(packetDropped))))"
attr title "queue bit length"
attr unit b
vector 159 TestNet.RC.eth[0].phyLayer.interFrameGapInserter interpacketGap:vector ETV
attr interpolationmode sample-hold
attr recordingmode vector
attr source "count(interpacketGapStarted) - count(interpacketGapEnded)"
attr title "interpacket gap state"
attr type int
vector 160 TestNet.RC.eth[0].phyLayer.transmitter transmitting:vector ETV
attr interpolationmode sample-hold
attr recordingmode vector
attr source "count(transmissionStarted) - count(transmissionEnded)"
attr title "transmitting state"
attr type int
vector 161 TestNet.RC.udp passedUpPk:vector(count) ETV
attr interpolationmode none
attr recordingmode vector(count)
attr source packetSentToUpper
attr title "packets passed up, count"
vector 162 TestNet.RC.udp droppedPkWrongPort:vector(count) ETV
attr interpolationmode none
attr recordingmode vector(count)
attr source packetDropReasonIsNoPortFound(packetDropped)
attr title "packets dropped (wrong port), count"
vector 163 TestNet.RC.udp droppedPkBadChecksum:vector(count) ETV
attr interpolationmode none
attr recordingmode vector(count)
attr source packetDropReasonIsIncorrectlyReceived(packetDropped)
attr title "packets dropped (checksum error), count"
vector 164 TestNet.TLM.eth[0].macLayer.queue queueLength:vector ETV
attr autoWarmupFilter false
attr interpolationmode sample-hold
attr recordingmode vector
attr source "warmup(atomic(constant0(packetPushEnded) + count(packetPushStarted) - count(packetPulled) - count(packetRemoved) - count(packetDropped)))"
attr title "queue length"
attr unit pk
vector 165 TestNet.TLM.eth[0].macLayer.queue queueBitLength:vector ETV
attr autoWarmupFilter false
attr interpolationmode sample-hold
attr recordingmode vector
attr source "warmup(atomic(constant0(packetPushEnded) + sum(packetLength(packetPushStarted)) - sum(packetLength(packetPulled)) - sum(packetLength(packetRemoved)) - sum(packetLength(packetDropped))))"
attr title "queue bit length"
attr unit b
vector 166 TestNet.TLM.eth[0].phyLayer.interFrameGapInserter interpacketGap:vector ETV
attr interpolationmode sample-hold
attr recordingmode vector
attr source "count(interpacketGapStarted) - count(interpacketGapEnded)"
attr title "interpacket gap state"
attr type int
vector 167 TestNet.TLM.eth[0].phyLayer.transmitter transmitting:vector ETV
attr interpolationmode sample-hold
attr recordingmode vector
attr source "count(transmissionStarted) - count(transmissionEnded)"
attr title "transmitting state"
attr type int
vector 168 TestNet.TLM.udp passedUpPk:vector(count) ETV
attr interpolationmode none
attr recordingmode vector(count)
attr source packetSentToUpper
attr title "packets passed up, count"
vector 169 TestNet.TLM.udp droppedPkWrongPort:vector(count) ETV
attr interpolationmode none
attr recordingmode vector(count)
attr source packetDropReasonIsNoPortFound(packetDropped)
attr title "packets dropped (wrong port), count"
vector 170 TestNet.TLM.udp droppedPkBadChecksum:vector(count) ETV
attr interpolationmode none
attr recordingmode vector(count)
attr source packetDropReasonIsIncorrectlyReceived(packetDropped)
attr title "packets dropped (checksum error), count"
vector 171 TestNet.US4.eth[0].macLayer.queue queueLength:vector ETV
attr autoWarmupFilter false
attr interpolationmode sample-hold
attr recordingmode vector
attr source "warmup(atomic(constant0(packetPushEnded) + count(packetPushStarted) - count(packetPulled) - count(packetRemoved) - count(packetDropped)))"
attr title "queue length"
attr unit pk
vector 172 TestNet.US4.eth[0].macLayer.queue queueBitLength:vector ETV
attr autoWarmupFilter false
attr interpolationmode sample-hold
attr recordingmode vector
attr source "warmup(atomic(constant0(packetPushEnded) + sum(packetLength(packetPushStarted)) - sum(packetLength(packetPulled)) - sum(packetLength(packetRemoved)) - sum(packetLength(packetDropped))))"
attr title "queue bit length"
attr unit b
vector 173 TestNet.US4.eth[0].phyLayer.interFrameGapInserter interpacketGap:vector ETV
attr interpolationmode sample-hold
attr recordingmode vector
attr source "count(interpacketGapStarted) - count(interpacketGapEnded)"
attr title "interpacket gap state"
attr type int
vector 174 TestNet.US4.eth[0].phyLayer.transmitter transmitting:vector ETV
attr interpolationmode sample-hold
attr recordingmode vector
attr source "count(transmissionStarted) - count(transmissionEnded)"
attr title "transmitting state"
attr type int
vector 175 TestNet.US4.udp passedUpPk:vector(count) ETV
attr interpolationmode none
attr recordingmode vector(count)
attr source packetSentToUpper
attr title "packets passed up, count"
vector 176 TestNet.US4.udp droppedPkWrongPort:vector(count) ETV
attr interpolationmode none
attr recordingmode vector(count)
attr source packetDropReasonIsNoPortFound(packetDropped)
attr title "packets dropped (wrong port), count"
vector 177 TestNet.US4.udp droppedPkBadChecksum:vector(count) ETV
attr interpolationmode none
attr recordingmode vector(count)
attr source packetDropReasonIsIncorrectlyReceived(packetDropped)
attr title "packets dropped (checksum error), count"
vector 178 TestNet.US3.eth[0].macLayer.queue queueLength:vector ETV
attr autoWarmupFilter false
attr interpolationmode sample-hold
attr recordingmode vector
attr source "warmup(atomic(constant0(packetPushEnded) + count(packetPushStarted) - count(packetPulled) - count(packetRemoved) - count(packetDropped)))"
attr title "queue length"
attr unit pk
vector 179 TestNet.US3.eth[0].macLayer.queue queueBitLength:vector ETV
attr autoWarmupFilter false
attr interpolationmode sample-hold
attr recordingmode vector
attr source "warmup(atomic(constant0(packetPushEnded) + sum(packetLength(packetPushStarted)) - sum(packetLength(packetPulled)) - sum(packetLength(packetRemoved)) - sum(packetLength(packetDropped))))"
attr title "queue bit length"
attr unit b
vector 180 TestNet.US3.eth[0].phyLayer.interFrameGapInserter interpacketGap:vector ETV
attr interpolationmode sample-hold
attr recordingmode vector
attr source "count(interpacketGapStarted) - count(interpacketGapEnded)"
attr title "interpacket gap state"
attr type int
vector 181 TestNet.US3.eth[0].phyLayer.transmitter transmitting:vector ETV
attr interpolationmode sample-hold
attr recordingmode vector
attr source "count(transmissionStarted) - count(transmissionEnded)"
attr title "transmitting state"
attr type int
vector 182 TestNet.US3.udp passedUpPk:vector(count) ETV
attr interpolationmode none
attr recordingmode vector(count)
attr source packetSentToUpper
attr title "packets passed up, count"
vector 183 TestNet.US3.udp droppedPkWrongPort:vector(count) ETV
attr interpolationmode none
attr recordingmode vector(count)
attr source packetDropReasonIsNoPortFound(packetDropped)
attr title "packets dropped (wrong port), count"
vector 184 TestNet.US3.udp droppedPkBadChecksum:vector(count) ETV
attr interpolationmode none
attr recordingmode vector(count)
attr source packetDropReasonIsIncorrectlyReceived(packetDropped)
attr title "packets dropped (checksum error), count"
vector 185 TestNet.ME.eth[0].macLayer.queue queueLength:vector ETV
attr autoWarmupFilter false
attr interpolationmode sample-hold
attr recordingmode vector
attr source "warmup(atomic(constant0(packetPushEnded) + count(packetPushStarted) - count(packetPulled) - count(packetRemoved) - count(packetDropped)))"
attr title "queue length"
attr unit pk
vector 186 TestNet.ME.eth[0].macLayer.queue queueBitLength:vector ETV
attr autoWarmupFilter false
attr interpolationmode sample-hold
attr recordingmode vector
attr source "warmup(atomic(constant0(packetPushEnded) + sum(packetLength(packetPushStarted)) - sum(packetLength(packetPulled)) - sum(packetLength(packetRemoved)) - sum(packetLength(packetDropped))))"
attr title "queue bit length"
attr unit b
vector 187 TestNet.ME.eth[0].phyLayer.interFrameGapInserter interpacketGap:vector ETV
attr interpolationmode sample-hold
attr recordingmode vector
attr source "count(interpacketGapStarted) - count(interpacketGapEnded)"
attr title "interpacket gap state"
attr type int
vector 188 TestNet.ME.eth[0].phyLayer.transmitter transmitting:vector ETV
attr interpolationmode sample-hold
attr recordingmode vector
attr source "count(transmissionStarted) - count(transmissionEnded)"
attr title "transmitting state"
attr type int
vector 189 TestNet.ME.udp passedUpPk:vector(count) ETV
attr interpolationmode none
attr recordingmode vector(count)
attr source packetSentToUpper
attr title "packets passed up, count"
vector 190 TestNet.ME.udp droppedPkWrongPort:vector(count) ETV
attr interpolationmode none
attr recordingmode vector(count)
attr source packetDropReasonIsNoPortFound(packetDropped)
attr title "packets dropped (wrong port), count"
vector 191 TestNet.ME.udp droppedPkBadChecksum:vector(count) ETV
attr interpolationmode none
attr recordingmode vector(count)
attr source packetDropReasonIsIncorrectlyReceived(packetDropped)
attr title "packets dropped (checksum error), count"
vector 192 TestNet.RS2.eth[0].macLayer.queue queueLength:vector ETV
attr autoWarmupFilter false
attr interpolationmode sample-hold
attr recordingmode vector
attr source "warmup(atomic(constant0(packetPushEnded) + count(packetPushStarted) - count(packetPulled) - count(packetRemoved) - count(packetDropped)))"
attr title "queue length"
attr unit pk
vector 193 TestNet.RS2.eth[0].macLayer.queue queueBitLength:vector ETV
attr autoWarmupFilter false
attr interpolationmode sample-hold
attr recordingmode vector
attr source "warmup(atomic(constant0(packetPushEnded) + sum(packetLength(packetPushStarted)) - sum(packetLength(packetPulled)) - sum(packetLength(packetRemoved)) - sum(packetLength(packetDropped))))"
attr title "queue bit length"
attr unit b
vector 194 TestNet.RS2.eth[0].phyLayer.interFrameGapInserter interpacketGap:vector ETV
attr interpolationmode sample-hold
attr recordingmode vector
attr source "count(interpacketGapStarted) - count(interpacketGapEnded)"
attr title "interpacket gap state"
attr type int
vector 195 TestNet.RS2.eth[0].phyLayer.transmitter transmitting:vector ETV
attr interpolationmode sample-hold
attr recordingmode vector
attr source "count(transmissionStarted) - count(transmissionEnded)"
attr title "transmitting state"
attr type int
vector 196 TestNet.RS2.udp passedUpPk:vector(count) ETV
attr interpolationmode none
attr recordingmode vector(count)
attr source packetSentToUpper
attr title "packets passed up, count"
vector 197 TestNet.RS2.udp droppedPkWrongPort:vector(count) ETV
attr interpolationmode none
attr recordingmode vector(count)
attr source packetDropReasonIsNoPortFound(packetDropped)
attr title "packets dropped (wrong port), count"
vector 198 TestNet.RS2.udp droppedPkBadChecksum:vector(count) ETV
attr interpolationmode none
attr recordingmode vector(count)
attr source packetDropReasonIsIncorrectlyReceived(packetDropped)
attr title "packets dropped (checksum error), count"
vector 199 TestNet.RS1.eth[0].macLayer.queue queueLength:vector ETV
attr autoWarmupFilter false
attr interpolationmode sample-hold
attr recordingmode vector
attr source "warmup(atomic(constant0(packetPushEnded) + count(packetPushStarted) - count(packetPulled) - count(packetRemoved) - count(packetDropped)))"
attr title "queue length"
attr unit pk
vector 200 TestNet.RS1.eth[0].macLayer.queue queueBitLength:vector ETV
attr autoWarmupFilter false
attr interpolationmode sample-hold
attr recordingmode vector
attr source "warmup(atomic(constant0(packetPushEnded) + sum(packetLength(packetPushStarted)) - sum(packetLength(packetPulled)) - sum(packetLength(packetRemoved)) - sum(packetLength(packetDropped))))"
attr title "queue bit length"
attr unit b
vector 201 TestNet.RS1.eth[0].phyLayer.interFrameGapInserter interpacketGap:vector ETV
attr interpolationmode sample-hold
attr recordingmode vector
attr source "count(interpacketGapStarted) - count(interpacketGapEnded)"
attr title "interpacket gap state"
attr type int
vector 202 TestNet.RS1.eth[0].phyLayer.transmitter transmitting:vector ETV
attr interpolationmode sample-hold
attr recordingmode vector
attr source "count(transmissionStarted) - count(transmissionEnded)"
attr title "transmitting state"
attr type int
vector 203 TestNet.RS1.udp passedUpPk:vector(count) ETV
attr interpolationmode none
attr recordingmode vector(count)
attr source packetSentToUpper
attr title "packets passed up, count"
vector 204 TestNet.RS1.udp droppedPkWrongPort:vector(count) ETV
attr interpolationmode none
attr recordingmode vector(count)
attr source packetDropReasonIsNoPortFound(packetDropped)
attr title "packets dropped (wrong port), count"
vector 205 TestNet.RS1.udp droppedPkBadChecksum:vector(count) ETV
attr interpolationmode none
attr recordingmode vector(count)
attr source packetDropReasonIsIncorrectlyReceived(packetDropped)
attr title "packets dropped (checksum error), count"
vector 206 TestNet.LD2.bridging.streamIdentifier.identifier incomingPacketLengths:vector ETV
attr interpolationmode none
attr recordingmode vector
attr source "packetLength(merge(packetPushedIn, packetPulledIn))"
attr title "incoming packet lengths"
attr unit b
vector 207 TestNet.LD2.bridging.streamIdentifier.identifier incomingDataRate:vector ETV
attr interpolationmode linear
attr recordingmode vector
attr source "throughput(merge(packetPushedIn, packetPulledIn))"
attr title "incoming data rate"
attr unit bps
vector 208 TestNet.LD2.bridging.streamIdentifier.identifier outgoingPacketLengths:vector ETV
attr interpolationmode none
attr recordingmode vector
attr source "packetLength(merge(packetPushedOut, packetPulledOut))"
attr title "outgoing packet lengths"
attr unit b
vector 209 TestNet.LD2.bridging.streamIdentifier.identifier outgoingDataRate:vector ETV
attr interpolationmode linear
attr recordingmode vector
attr source "throughput(merge(packetPushedOut, packetPulledOut))"
attr title "outgoing data rate"
attr unit bps
vector 210 TestNet.LD2.bridging.streamCoder.encoder incomingPacketLengths:vector ETV
attr interpolationmode none
attr recordingmode vector
attr source "packetLength(merge(packetPushedIn, packetPulledIn))"
attr title "incoming packet lengths"
attr unit b
vector 211 TestNet.LD2.bridging.streamCoder.encoder incomingDataRate:vector ETV
attr interpolationmode linear
attr recordingmode vector
attr source "throughput(merge(packetPushedIn, packetPulledIn))"
attr title "incoming data rate"
attr unit bps
vector 212 TestNet.LD2.bridging.streamCoder.encoder outgoingPacketLengths:vector ETV
attr interpolationmode none
attr recordingmode vector
attr source "packetLength(merge(packetPushedOut, packetPulledOut))"
attr title "outgoing packet lengths"
attr unit b
vector 213 TestNet.LD2.bridging.streamCoder.encoder outgoingDataRate:vector ETV
attr interpolationmode linear
attr recordingmode vector
attr source "throughput(merge(packetPushedOut, packetPulledOut))"
attr title "outgoing data rate"
attr unit bps
vector 214 TestNet.LD2.ieee8021q.qTagHeaderInserter incomingPacketLengths:vector ETV
attr interpolationmode none
attr recordingmode vector
attr source "packetLength(merge(packetPushedIn, packetPulledIn))"
attr title "incoming packet lengths"
attr unit b
vector 215 TestNet.LD2.ieee8021q.qTagHeaderInserter incomingDataRate:vector ETV
attr interpolationmode linear
attr recordingmode vector
attr source "throughput(merge(packetPushedIn, packetPulledIn))"
attr title "incoming data rate"
attr unit bps
vector 216 TestNet.LD2.ieee8021q.qTagHeaderInserter outgoingPacketLengths:vector ETV
attr interpolationmode none
attr recordingmode vector
attr source "packetLength(merge(packetPushedOut, packetPulledOut))"
attr title "outgoing packet lengths"
attr unit b
vector 217 TestNet.LD2.ieee8021q.qTagHeaderInserter outgoingDataRate:vector ETV
attr interpolationmode linear
attr recordingmode vector
attr source "throughput(merge(packetPushedOut, packetPulledOut))"
attr title "outgoing data rate"
attr unit bps
vector 218 TestNet.LD2.ethernet.macHeaderInserter incomingPacketLengths:vector ETV
attr interpolationmode none
attr recordingmode vector
attr source "packetLength(merge(packetPushedIn, packetPulledIn))"
attr title "incoming packet lengths"
attr unit b
vector 219 TestNet.LD2.ethernet.macHeaderInserter incomingDataRate:vector ETV
attr interpolationmode linear
attr recordingmode vector
attr source "throughput(merge(packetPushedIn, packetPulledIn))"
attr title "incoming data rate"
attr unit bps
vector 220 TestNet.LD2.ethernet.macHeaderInserter outgoingPacketLengths:vector ETV
attr interpolationmode none
attr recordingmode vector
attr source "packetLength(merge(packetPushedOut, packetPulledOut))"
attr title "outgoing packet lengths"
attr unit b
vector 221 TestNet.LD2.ethernet.macHeaderInserter outgoingDataRate:vector ETV
attr interpolationmode linear
attr recordingmode vector
attr source "throughput(merge(packetPushedOut, packetPulledOut))"
attr title "outgoing data rate"
attr unit bps
vector 222 TestNet.LD2.ethernet.paddingInserter incomingPacketLengths:vector ETV
attr interpolationmode none
attr recordingmode vector
attr source "packetLength(merge(packetPushedIn, packetPulledIn))"
attr title "incoming packet lengths"
attr unit b
vector 223 TestNet.LD2.ethernet.paddingInserter incomingDataRate:vector ETV
attr interpolationmode linear
attr recordingmode vector
attr source "throughput(merge(packetPushedIn, packetPulledIn))"
attr title "incoming data rate"
attr unit bps
vector 224 TestNet.LD2.ethernet.paddingInserter outgoingPacketLengths:vector ETV
attr interpolationmode none
attr recordingmode vector
attr source "packetLength(merge(packetPushedOut, packetPulledOut))"
attr title "outgoing packet lengths"
attr unit b
vector 225 TestNet.LD2.ethernet.paddingInserter outgoingDataRate:vector ETV
attr interpolationmode linear
attr recordingmode vector
attr source "throughput(merge(packetPushedOut, packetPulledOut))"
attr title "outgoing data rate"
attr unit bps
vector 226 TestNet.LD2.ethernet.fcsInserter incomingPacketLengths:vector ETV
attr interpolationmode none
attr recordingmode vector
attr source "packetLength(merge(packetPushedIn, packetPulledIn))"
attr title "incoming packet lengths"
attr unit b
vector 227 TestNet.LD2.ethernet.fcsInserter incomingDataRate:vector ETV
attr interpolationmode linear
attr recordingmode vector
attr source "throughput(merge(packetPushedIn, packetPulledIn))"
attr title "incoming data rate"
attr unit bps
vector 228 TestNet.LD2.ethernet.fcsInserter outgoingPacketLengths:vector ETV
attr interpolationmode none
attr recordingmode vector
attr source "packetLength(merge(packetPushedOut, packetPulledOut))"
attr title "outgoing packet lengths"
attr unit b
vector 229 TestNet.LD2.ethernet.fcsInserter outgoingDataRate:vector ETV
attr interpolationmode linear
attr recordingmode vector
attr source "throughput(merge(packetPushedOut, packetPulledOut))"
attr title "outgoing data rate"
attr unit bps
vector 230 TestNet.LD2.eth[0].macLayer.queue incomingPacketLengths:vector ETV
attr interpolationmode none
attr recordingmode vector
attr source packetLength(packetPushStarted)
attr title "incoming packet lengths"
attr unit b
vector 231 TestNet.LD2.eth[0].macLayer.queue incomingDataRate:vector ETV
attr interpolationmode linear
attr recordingmode vector
attr source throughput(packetPushStarted)
attr title "incoming datarate"
attr unit bps
vector 232 TestNet.US2.bridging.streamIdentifier.identifier incomingPacketLengths:vector ETV
attr interpolationmode none
attr recordingmode vector
attr source "packetLength(merge(packetPushedIn, packetPulledIn))"
attr title "incoming packet lengths"
attr unit b
vector 233 TestNet.US2.bridging.streamIdentifier.identifier incomingDataRate:vector ETV
attr interpolationmode linear
attr recordingmode vector
attr source "throughput(merge(packetPushedIn, packetPulledIn))"
attr title "incoming data rate"
attr unit bps
vector 234 TestNet.US2.bridging.streamIdentifier.identifier outgoingPacketLengths:vector ETV
attr interpolationmode none
attr recordingmode vector
attr source "packetLength(merge(packetPushedOut, packetPulledOut))"
attr title "outgoing packet lengths"
attr unit b
vector 235 TestNet.US2.bridging.streamIdentifier.identifier outgoingDataRate:vector ETV
attr interpolationmode linear
attr recordingmode vector
attr source "throughput(merge(packetPushedOut, packetPulledOut))"
attr title "outgoing data rate"
attr unit bps
vector 236 TestNet.US2.bridging.streamCoder.encoder incomingPacketLengths:vector ETV
attr interpolationmode none
attr recordingmode vector
attr source "packetLength(merge(packetPushedIn, packetPulledIn))"
attr title "incoming packet lengths"
attr unit b
vector 237 TestNet.US2.bridging.streamCoder.encoder incomingDataRate:vector ETV
attr interpolationmode linear
attr recordingmode vector
attr source "throughput(merge(packetPushedIn, packetPulledIn))"
attr title "incoming data rate"
attr unit bps
vector 238 TestNet.US2.bridging.streamCoder.encoder outgoingPacketLengths:vector ETV
attr interpolationmode none
attr recordingmode vector
attr source "packetLength(merge(packetPushedOut, packetPulledOut))"
attr title "outgoing packet lengths"
attr unit b
vector 239 TestNet.US2.bridging.streamCoder.encoder outgoingDataRate:vector ETV
attr interpolationmode linear
attr recordingmode vector
attr source "throughput(merge(packetPushedOut, packetPulledOut))"
attr title "outgoing data rate"
attr unit bps
vector 240 TestNet.US2.ieee8021q.qTagHeaderInserter incomingPacketLengths:vector ETV
attr interpolationmode none
attr recordingmode vector
attr source "packetLength(merge(packetPushedIn, packetPulledIn))"
attr title "incoming packet lengths"
attr unit b
vector 241 TestNet.US2.ieee8021q.qTagHeaderInserter incomingDataRate:vector ETV
attr interpolationmode linear
attr recordingmode vector
attr source "throughput(merge(packetPushedIn, packetPulledIn))"
attr title "incoming data rate"
attr unit bps
vector 242 TestNet.US2.ieee8021q.qTagHeaderInserter outgoingPacketLengths:vector ETV
attr interpolationmode none
attr recordingmode vector
attr source "packetLength(merge(packetPushedOut, packetPulledOut))"
attr title "outgoing packet lengths"
attr unit b
vector 243 TestNet.US2.ieee8021q.qTagHeaderInserter outgoingDataRate:vector ETV
attr interpolationmode linear
attr recordingmode vector
attr source "throughput(merge(packetPushedOut, packetPulledOut))"
attr title "outgoing data rate"
attr unit bps
vector 244 TestNet.US2.ethernet.macHeaderInserter incomingPacketLengths:vector ETV
attr interpolationmode none
attr recordingmode vector
attr source "packetLength(merge(packetPushedIn, packetPulledIn))"
attr title "incoming packet lengths"
attr unit b
vector 245 TestNet.US2.ethernet.macHeaderInserter incomingDataRate:vector ETV
attr interpolationmode linear
attr recordingmode vector
attr source "throughput(merge(packetPushedIn, packetPulledIn))"
attr title "incoming data rate"
attr unit bps
vector 246 TestNet.US2.ethernet.macHeaderInserter outgoingPacketLengths:vector ETV
attr interpolationmode none
attr recordingmode vector
attr source "packetLength(merge(packetPushedOut, packetPulledOut))"
attr title "outgoing packet lengths"
attr unit b
vector 247 TestNet.US2.ethernet.macHeaderInserter outgoingDataRate:vector ETV
attr interpolationmode linear
attr recordingmode vector
attr source "throughput(merge(packetPushedOut, packetPulledOut))"
attr title "outgoing data rate"
attr unit bps
vector 248 TestNet.US2.ethernet.paddingInserter incomingPacketLengths:vector ETV
attr interpolationmode none
attr recordingmode vector
attr source "packetLength(merge(packetPushedIn, packetPulledIn))"
attr title "incoming packet lengths"
attr unit b
vector 249 TestNet.US2.ethernet.paddingInserter incomingDataRate:vector ETV
attr interpolationmode linear
attr recordingmode vector
attr source "throughput(merge(packetPushedIn, packetPulledIn))"
attr title "incoming data rate"
attr unit bps
vector 250 TestNet.US2.ethernet.paddingInserter outgoingPacketLengths:vector ETV
attr interpolationmode none
attr recordingmode vector
attr source "packetLength(merge(packetPushedOut, packetPulledOut))"
attr title "outgoing packet lengths"
attr unit b
vector 251 TestNet.US2.ethernet.paddingInserter outgoingDataRate:vector ETV
attr interpolationmode linear
attr recordingmode vector
attr source "throughput(merge(packetPushedOut, packetPulledOut))"
attr title "outgoing data rate"
attr unit bps
vector 252 TestNet.US2.ethernet.fcsInserter incomingPacketLengths:vector ETV
attr interpolationmode none
attr recordingmode vector
attr source "packetLength(merge(packetPushedIn, packetPulledIn))"
attr title "incoming packet lengths"
attr unit b
vector 253 TestNet.US2.ethernet.fcsInserter incomingDataRate:vector ETV
attr interpolationmode linear
attr recordingmode vector
attr source "throughput(merge(packetPushedIn, packetPulledIn))"
attr title "incoming data rate"
attr unit bps
vector 254 TestNet.US2.ethernet.fcsInserter outgoingPacketLengths:vector ETV
attr interpolationmode none
attr recordingmode vector
attr source "packetLength(merge(packetPushedOut, packetPulledOut))"
attr title "outgoing packet lengths"
attr unit b
vector 255 TestNet.US2.ethernet.fcsInserter outgoingDataRate:vector ETV
attr interpolationmode linear
attr recordingmode vector
attr source "throughput(merge(packetPushedOut, packetPulledOut))"
attr title "outgoing data rate"
attr unit bps
vector 256 TestNet.US2.eth[0].macLayer.queue incomingPacketLengths:vector ETV
attr interpolationmode none
attr recordingmode vector
attr source packetLength(packetPushStarted)
attr title "incoming packet lengths"
attr unit b
vector 257 TestNet.US2.eth[0].macLayer.queue incomingDataRate:vector ETV
attr interpolationmode linear
attr recordingmode vector
attr source throughput(packetPushStarted)
attr title "incoming datarate"
attr unit bps
vector 258 TestNet.CM1.bridging.streamIdentifier.identifier incomingPacketLengths:vector ETV
attr interpolationmode none
attr recordingmode vector
attr source "packetLength(merge(packetPushedIn, packetPulledIn))"
attr title "incoming packet lengths"
attr unit b
vector 259 TestNet.CM1.bridging.streamIdentifier.identifier incomingDataRate:vector ETV
attr interpolationmode linear
attr recordingmode vector
attr source "throughput(merge(packetPushedIn, packetPulledIn))"
attr title "incoming data rate"
attr unit bps
vector 260 TestNet.CM1.bridging.streamIdentifier.identifier outgoingPacketLengths:vector ETV
attr interpolationmode none
attr recordingmode vector
attr source "packetLength(merge(packetPushedOut, packetPulledOut))"
attr title "outgoing packet lengths"
attr unit b
vector 261 TestNet.CM1.bridging.streamIdentifier.identifier outgoingDataRate:vector ETV
attr interpolationmode linear
attr recordingmode vector
attr source "throughput(merge(packetPushedOut, packetPulledOut))"
attr title "outgoing data rate"
attr unit bps
vector 262 TestNet.CM1.bridging.streamCoder.encoder incomingPacketLengths:vector ETV
attr interpolationmode none
attr recordingmode vector
attr source "packetLength(merge(packetPushedIn, packetPulledIn))"
attr title "incoming packet lengths"
attr unit b
vector 263 TestNet.CM1.bridging.streamCoder.encoder incomingDataRate:vector ETV
attr interpolationmode linear
attr recordingmode vector
attr source "throughput(merge(packetPushedIn, packetPulledIn))"
attr title "incoming data rate"
attr unit bps
vector 264 TestNet.CM1.bridging.streamCoder.encoder outgoingPacketLengths:vector ETV
attr interpolationmode none
[...]
1322	49588489 38 391168 391168 1.0043325 1.0043325 1 97717253.317946 97717253.317946 97717253.317946 9.5486615960036e+15
1340	49588527 38 391168 391168 1.0043325 1.0043325 1 97717253.317946 97717253.317946 97717253.317946 9.5486615960036e+15
1344	49588565 37 391168 391168 1.0043325 1.0043325 1 30032792.72328 30032792.72328 30032792.72328 9.0196863875949e+14
1369	49588602 38 391168 391168 1.0043325 1.0043325 1 26756488.062558 26756488.062558 26756488.062558 7.1590965344183e+14
1370	49588640 37 391168 391168 1.0043325 1.0043325 1 30032792.72328 30032792.72328 30032792.72328 9.0196863875949e+14
1372	49588677 37 391168 391168 1.0043325 1.0043325 1 30032792.72328 30032792.72328 30032792.72328 9.0196863875949e+14
1397	49588714 38 391168 391168 1.0043325 1.0043325 1 26756488.062558 26756488.062558 26756488.062558 7.1590965344183e+14
1398	49588752 37 391168 391168 1.0043325 1.0043325 1 30032792.72328 30032792.72328 30032792.72328 9.0196863875949e+14
1401	49588789 38 391168 391168 1.0043325 1.0043325 1 26756488.062558 26756488.062558 26756488.062558 7.1590965344183e+14
1402	49588827 37 391168 391168 1.0043325 1.0043325 1 30032792.72328 30032792.72328 30032792.72328 9.0196863875949e+14
1427	49588864 38 391168 391168 1.0043325 1.0043325 1 26756488.062558 26756488.062558 26756488.062558 7.1590965344183e+14
1428	49588902 37 391168 391168 1.0043325 1.0043325 1 30032792.72328 30032792.72328 30032792.72328 9.0196863875949e+14
1430	49588939 37 391168 391168 1.0043325 1.0043325 1 30032792.72328 30032792.72328 30032792.72328 9.0196863875949e+14
1455	49588976 38 391168 391168 1.0043325 1.0043325 1 26756488.062558 26756488.062558 26756488.062558 7.1590965344183e+14
1456	49589014 37 391168 391168 1.0043325 1.0043325 1 30032792.72328 30032792.72328 30032792.72328 9.0196863875949e+14
1458	49589051 37 391168 391168 1.0043325 1.0043325 1 30032792.72328 30032792.72328 30032792.72328 9.0196863875949e+14
1483	49589088 38 391168 391168 1.0043325 1.0043325 1 26756488.062558 26756488.062558 26756488.062558 7.1590965344183e+14
1484	49589126 37 391168 391168 1.0043325 1.0043325 1 30032792.72328 30032792.72328 30032792.72328 9.0196863875949e+14
1486	49589163 37 391168 391168 1.0043325 1.0043325 1 30032792.72328 30032792.72328 30032792.72328 9.0196863875949e+14
1511	49589200 38 391168 391168 1.0043325 1.0043325 1 26756488.062558 26756488.062558 26756488.062558 7.1590965344183e+14
1512	49589238 37 391168 391168 1.0043325 1.0043325 1 30032792.72328 30032792.72328 30032792.72328 9.0196863875949e+14
1515	49589275 38 391168 391168 1.0043325 1.0043325 1 26756488.062558 26756488.062558 26756488.062558 7.1590965344183e+14
1517	49589313 38 391168 391168 1.0043325 1.0043325 1 15632544.720138 15632544.720138 15632544.720138 2.4437645442713e+14
1520	49589351 38 391168 391168 1.0043325 1.0043325 1 15632544.720138 15632544.720138 15632544.720138 2.4437645442713e+14
1522	49589389 38 391168 391168 1.0043325 1.0043325 1 15632544.720138 15632544.720138 15632544.720138 2.4437645442713e+14
1524	49589427 38 391168 391168 1.0043325 1.0043325 1 15632544.720138 15632544.720138 15632544.720138 2.4437645442713e+14
1540	49589465 37 391168 391168 1.0043325 1.0043325 1 16655510.67513 16655510.67513 16655510.67513 2.7740603584936e+14
1574	49589502 37 391168 391168 1.0043325 1.0043325 1 16655510.67513 16655510.67513 16655510.67513 2.7740603584936e+14
1579	49589539 38 391168 391168 1.0043325 1.0043325 1 173187912.83548 173187912.83548 173187912.83548 2.999405315231e+16
1581	49589577 38 391168 391168 1.0043325 1.0043325 1 10358915.175995 10358915.175995 10358915.175995 1.0730712362347e+14
1583	49589615 38 391168 391168 1.0043325 1.0043325 1 10358915.175995 10358915.175995 10358915.175995 1.0730712362347e+14
1585	49589653 38 391168 391168 1.0043325 1.0043325 1 10358915.175995 10358915.175995 10358915.175995 1.0730712362347e+14
1587	49589691 38 391168 391168 1.0043325 1.0043325 1 10358915.175995 10358915.175995 10358915.175995 1.0730712362347e+14
1589	49589729 38 391168 391168 1.0043325 1.0043325 1 10358915.175995 10358915.175995 10358915.175995 1.0730712362347e+14
1592	49589767 38 391168 391168 1.0043325 1.0043325 1 95586381.996538 95586381.996538 95586381.996538 9.136756423188e+15
1594	49589805 38 391168 391168 1.0043325 1.0043325 1 95586381.996538 95586381.996538 95586381.996538 9.136756423188e+15
1596	49589843 38 391168 391168 1.0043325 1.0043325 1 95586381.996538 95586381.996538 95586381.996538 9.136756423188e+15
1612	49589881 38 391168 391168 1.0043325 1.0043325 1 10358915.175995 10358915.175995 10358915.175995 1.0730712362347e+14
1614	49589919 38 391168 391168 1.0043325 1.0043325 1 10358915.175995 10358915.175995 10358915.175995 1.0730712362347e+14
1616	49589957 38 391168 391168 1.0043325 1.0043325 1 10358915.175995 10358915.175995 10358915.175995 1.0730712362347e+14
1632	49589995 38 391168 391168 1.0043325 1.0043325 1 10358915.175995 10358915.175995 10358915.175995 1.0730712362347e+14
1634	49590033 38 391168 391168 1.0043325 1.0043325 1 10358915.175995 10358915.175995 10358915.175995 1.0730712362347e+14
1636	49590071 38 391168 391168 1.0043325 1.0043325 1 10358915.175995 10358915.175995 10358915.175995 1.0730712362347e+14
1652	49590109 38 391168 391168 1.0043325 1.0043325 1 10358915.175995 10358915.175995 10358915.175995 1.0730712362347e+14
1654	49590147 38 391168 391168 1.0043325 1.0043325 1 10358915.175995 10358915.175995 10358915.175995 1.0730712362347e+14
1656	49590185 38 391168 391168 1.0043325 1.0043325 1 10358915.175995 10358915.175995 10358915.175995 1.0730712362347e+14
1672	49590223 38 391168 391168 1.0043325 1.0043325 1 10358915.175995 10358915.175995 10358915.175995 1.0730712362347e+14
1674	49590261 38 391168 391168 1.0043325 1.0043325 1 10358915.175995 10358915.175995 10358915.175995 1.0730712362347e+14
1676	49590299 38 391168 391168 1.0043325 1.0043325 1 10358915.175995 10358915.175995 10358915.175995 1.0730712362347e+14
1692	49590337 38 391168 391168 1.0043325 1.0043325 1 10358915.175995 10358915.175995 10358915.175995 1.0730712362347e+14
1694	49590375 38 391168 391168 1.0043325 1.0043325 1 10358915.175995 10358915.175995 10358915.175995 1.0730712362347e+14
1696	49590413 38 391168 391168 1.0043325 1.0043325 1 10358915.175995 10358915.175995 10358915.175995 1.0730712362347e+14
1711	49590451 38 391168 391168 1.0043325 1.0043325 1 9771725.3317946 9771725.3317946 9771725.3317946 95486615960036
1712	49590489 37 391168 391168 1.0043325 1.0043325 1 95353721.86959 95353721.86959 95353721.86959 9.0923322743832e+15
1737	49590526 38 391168 391168 1.0043325 1.0043325 1 4704904.7893826 4704904.7893826 4704904.7893826 22136129077155
1738	49590564 37 391168 391168 1.0043325 1.0043325 1 95353721.86959 95353721.86959 95353721.86959 9.0923322743832e+15
1740	49590601 38 391168 391168 1.0043325 1.0043325 1 10968263.127525 10968263.127525 10968263.127525 1.2030279603461e+14
1765	49590639 38 391168 391168 1.0043325 1.0043325 1 9771725.3317946 9771725.3317946 9771725.3317946 95486615960036
1766	49590677 38 391168 391168 1.0043325 1.0043325 1 10968263.127525 10968263.127525 10968263.127525 1.2030279603461e+14
1768	49590715 38 391168 391168 1.0043325 1.0043325 1 10968263.127525 10968263.127525 10968263.127525 1.2030279603461e+14
1793	49590753 38 391168 391168 1.0043325 1.0043325 1 9771725.3317946 9771725.3317946 9771725.3317946 95486615960036
1794	49590791 38 391168 391168 1.0043325 1.0043325 1 10968263.127525 10968263.127525 10968263.127525 1.2030279603461e+14
1796	49590829 38 391168 391168 1.0043325 1.0043325 1 10968263.127525 10968263.127525 10968263.127525 1.2030279603461e+14
1821	49590867 38 391168 391168 1.0043325 1.0043325 1 9771725.3317946 9771725.3317946 9771725.3317946 95486615960036
1822	49590905 38 391168 391168 1.0043325 1.0043325 1 10968263.127525 10968263.127525 10968263.127525 1.2030279603461e+14
1824	49590943 38 391168 391168 1.0043325 1.0043325 1 10968263.127525 10968263.127525 10968263.127525 1.2030279603461e+14
1849	49590981 38 391168 391168 1.0043325 1.0043325 1 9771725.3317946 9771725.3317946 9771725.3317946 95486615960036
1850	49591019 38 391168 391168 1.0043325 1.0043325 1 10968263.127525 10968263.127525 10968263.127525 1.2030279603461e+14
1852	49591057 38 391168 391168 1.0043325 1.0043325 1 10968263.127525 10968263.127525 10968263.127525 1.2030279603461e+14
1877	49591095 38 391168 391168 1.0043325 1.0043325 1 9771725.3317946 9771725.3317946 9771725.3317946 95486615960036
1878	49591133 38 391168 391168 1.0043325 1.0043325 1 10968263.127525 10968263.127525 10968263.127525 1.2030279603461e+14
1881	49591171 38 391168 391168 1.0043325 1.0043325 1 9771725.3317946 9771725.3317946 9771725.3317946 95486615960036
1885	49591209 38 391168 391168 1.0043325 1.0043325 1 9771725.3317946 9771725.3317946 9771725.3317946 95486615960036
1886	49591247 38 391168 391168 1.0043325 1.0043325 1 9823427.5822274 9823427.5822274 9823427.5822274 96499729463265
1904	49591285 38 391168 391168 1.0043325 1.0043325 1 9823427.5822274 9823427.5822274 9823427.5822274 96499729463265
1906	49591323 38 391168 391168 1.0043325 1.0043325 1 9823427.5822274 9823427.5822274 9823427.5822274 96499729463265
1924	49591361 38 391168 391168 1.0043325 1.0043325 1 9823427.5822274 9823427.5822274 9823427.5822274 96499729463265
1926	49591399 38 391168 391168 1.0043325 1.0043325 1 98880553.952683 98880553.952683 98880553.952683 9.7773639499895e+15
1944	49591437 38 391168 391168 1.0043325 1.0043325 1 98880553.952683 98880553.952683 98880553.952683 9.7773639499895e+15
1946	49591475 38 391168 391168 1.0043325 1.0043325 1 19776110.790537 19776110.790537 19776110.790537 3.9109455799958e+14
1964	49591513 38 391168 391168 1.0043325 1.0043325 1 19776110.790537 19776110.790537 19776110.790537 3.9109455799958e+14
1966	49591551 38 391168 391168 1.0043325 1.0043325 1 98880553.952683 98880553.952683 98880553.952683 9.7773639499895e+15
1984	49591589 38 391168 391168 1.0043325 1.0043325 1 98880553.952683 98880553.952683 98880553.952683 9.7773639499895e+15
2008	49591627 202 391168 391168 0.1 1.0043325 11 0 0 0 0
2009	49591829 202 391168 391168 0.1 1.0043325 11 0 0 0 0
2010	49592031 202 391168 391168 0.1 1.0043325 11 0 0 0 0
2011	49592233 202 391168 391168 0.1 1.0043325 11 0 0 0 0
2012	49592435 202 391168 391168 0.1 1.0043325 11 0 0 0 0
2013	49592637 202 391168 391168 0.1 1.0043325 11 0 0 0 0
2014	49592839 202 391168 391168 0.1 1.0043325 11 0 0 0 0
2015	49593041 202 391168 391168 0.1 1.0043325 11 0 0 0 0
2016	49593243 202 391168 391168 0.1 1.0043325 11 0 0 0 0
2017	49593445 202 391168 391168 0.1 1.0043325 11 0 0 0 0
2018	49593647 202 391168 391168 0.1 1.0043325 11 0 0 0 0
2019	49593849 202 391168 391168 0.1 1.0043325 11 0 0 0 0
2020	49594051 202 391168 391168 0.1 1.0043325 11 0 0 0 0
2021	49594253 202 391168 391168 0.1 1.0043325 11 0 0 0 0
2022	49594455 202 391168 391168 0.1 1.0043325 11 0 0 0 0
2023	49594657 202 391168 391168 0.1 1.0043325 11 0 0 0 0
2024	49594859 202 391168 391168 0.1 1.0043325 11 0 0 0 0
2025	49595061 202 391168 391168 0.1 1.0043325 11 0 0 0 0
2026	49595263 202 391168 391168 0.1 1.0043325 11 0 0 0 0
2027	49595465 202 391168 391168 0.1 1.0043325 11 0 0 0 0
2028	49595667 202 391168 391168 0.1 1.0043325 11 0 0 0 0
2029	49595869 202 391168 391168 0.1 1.0043325 11 0 0 0 0
2030	49596071 202 391168 391168 0.1 1.0043325 11 0 0 0 0
2031	49596273 202 391168 391168 0.1 1.0043325 11 0 0 0 0
2032	49596475 202 391168 391168 0.1 1.0043325 11 0 0 0 0
2033	49596677 202 391168 391168 0.1 1.0043325 11 0 0 0 0
2034	49596879 202 391168 391168 0.1 1.0043325 11 0 0 0 0
2035	49597081 202 391168 391168 0.1 1.0043325 11 0 0 0 0
2036	49597283 202 391168 391168 0.1 1.0043325 11 0 0 0 0
2037	49597485 202 391168 391168 0.1 1.0043325 11 0 0 0 0
2038	49597687 202 391168 391168 0.1 1.0043325 11 0 0 0 0
2039	49597889 202 391168 391168 0.1 1.0043325 11 0 0 0 0
2040	49598091 202 391168 391168 0.1 1.0043325 11 0 0 0 0
2041	49598293 202 391168 391168 0.1 1.0043325 11 0 0 0 0
2042	49598495 202 391168 391168 0.1 1.0043325 11 0 0 0 0
2043	49598697 202 391168 391168 0.1 1.0043325 11 0 0 0 0
2044	49598899 202 391168 391168 0.1 1.0043325 11 0 0 0 0
2045	49599101 202 391168 391168 0.1 1.0043325 11 0 0 0 0
2046	49599303 202 391168 391168 0.1 1.0043325 11 0 0 0 0
2047	49599505 202 391168 391168 0.1 1.0043325 11 0 0 0 0
2048	49599707 202 391168 391168 0.1 1.0043325 11 0 0 0 0
2049	49599909 202 391168 391168 0.1 1.0043325 11 0 0 0 0
2050	49600111 202 391168 391168 0.1 1.0043325 11 0 0 0 0
2051	49600313 202 391168 391168 0.1 1.0043325 11 0 0 0 0
2052	49600515 202 391168 391168 0.1 1.0043325 11 0 0 0 0
2053	49600717 202 391168 391168 0.1 1.0043325 11 0 0 0 0
2054	49600919 202 391168 391168 0.1 1.0043325 11 0 0 0 0
2055	49601121 202 391168 391168 0.1 1.0043325 11 0 0 0 0
2056	49601323 202 391168 391168 0.1 1.0043325 11 0 0 0 0
2057	49601525 202 391168 391168 0.1 1.0043325 11 0 0 0 0
2058	49601727 202 391168 391168 0.1 1.0043325 11 0 0 0 0
2059	49601929 202 391168 391168 0.1 1.0043325 11 0 0 0 0
2060	49602131 202 391168 391168 0.1 1.0043325 11 0 0 0 0
2061	49602333 202 391168 391168 0.1 1.0043325 11 0 0 0 0
2062	49602535 202 391168 391168 0.1 1.0043325 11 0 0 0 0
2063	49602737 202 391168 391168 0.1 1.0043325 11 0 0 0 0
2064	49602939 202 391168 391168 0.1 1.0043325 11 0 0 0 0
2065	49603141 202 391168 391168 0.1 1.0043325 11 0 0 0 0
2066	49603343 202 391168 391168 0.1 1.0043325 11 0 0 0 0
2067	49603545 202 391168 391168 0.1 1.0043325 11 0 0 0 0
2068	49603747 202 391168 391168 0.1 1.0043325 11 0 0 0 0
2069	49603949 202 391168 391168 0.1 1.0043325 11 0 0 0 0
2070	49604151 202 391168 391168 0.1 1.0043325 11 0 0 0 0
2071	49604353 202 391168 391168 0.1 1.0043325 11 0 0 0 0
2072	49604555 202 391168 391168 0.1 1.0043325 11 0 0 0 0
2073	49604757 202 391168 391168 0.1 1.0043325 11 0 0 0 0
2074	49604959 202 391168 391168 0.1 1.0043325 11 0 0 0 0
2075	49605161 202 391168 391168 0.1 1.0043325 11 0 0 0 0
2076	49605363 202 391168 391168 0.1 1.0043325 11 0 0 0 0
2077	49605565 202 391168 391168 0.1 1.0043325 11 0 0 0 0
2078	49605767 202 391168 391168 0.1 1.0043325 11 0 0 0 0
2079	49605969 202 391168 391168 0.1 1.0043325 11 0 0 0 0
2080	49606171 202 391168 391168 0.1 1.0043325 11 0 0 0 0
2081	49606373 202 391168 391168 0.1 1.0043325 11 0 0 0 0
2082	49606575 202 391168 391168 0.1 1.0043325 11 0 0 0 0
2083	49606777 202 391168 391168 0.1 1.0043325 11 0 0 0 0
2084	49606979 202 391168 391168 0.1 1.0043325 11 0 0 0 0
2085	49607181 202 391168 391168 0.1 1.0043325 11 0 0 0 0
2086	49607383 202 391168 391168 0.1 1.0043325 11 0 0 0 0
2087	49607585 202 391168 391168 0.1 1.0043325 11 0 0 0 0
2088	49607787 202 391168 391168 0.1 1.0043325 11 0 0 0 0
2089	49607989 202 391168 391168 0.1 1.0043325 11 0 0 0 0
2090	49608191 202 391168 391168 0.1 1.0043325 11 0 0 0 0
2091	49608393 202 391168 391168 0.1 1.0043325 11 0 0 0 0
2092	49608595 202 391168 391168 0.1 1.0043325 11 0 0 0 0
2093	49608797 202 391168 391168 0.1 1.0043325 11 0 0 0 0
2094	49608999 202 391168 391168 0.1 1.0043325 11 0 0 0 0
2095	49609201 202 391168 391168 0.1 1.0043325 11 0 0 0 0
2096	49609403 202 391168 391168 0.1 1.0043325 11 0 0 0 0
2097	49609605 202 391168 391168 0.1 1.0043325 11 0 0 0 0
2098	49609807 202 391168 391168 0.1 1.0043325 11 0 0 0 0
2099	49610009 202 391168 391168 0.1 1.0043325 11 0 0 0 0
2100	49610211 202 391168 391168 0.1 1.0043325 11 0 0 0 0
2101	49610413 202 391168 391168 0.1 1.0043325 11 0 0 0 0
2102	49610615 202 391168 391168 0.1 1.0043325 11 0 0 0 0
2103	49610817 202 391168 391168 0.1 1.0043325 11 0 0 0 0
2104	49611019 202 391168 391168 0.1 1.0043325 11 0 0 0 0
2105	49611221 202 391168 391168 0.1 1.0043325 11 0 0 0 0
2106	49611423 202 391168 391168 0.1 1.0043325 11 0 0 0 0
2107	49611625 202 391168 391168 0.1 1.0043325 11 0 0 0 0
2108	49611827 202 391168 391168 0.1 1.0043325 11 0 0 0 0
2109	49612029 202 391168 391168 0.1 1.0043325 11 0 0 0 0
2110	49612231 202 391168 391168 0.1 1.0043325 11 0 0 0 0
2111	49612433 202 391168 391168 0.1 1.0043325 11 0 0 0 0
2112	49612635 202 391168 391168 0.1 1.0043325 11 0 0 0 0
2113	49612837 202 391168 391168 0.1 1.0043325 11 0 0 0 0
2114	49613039 202 391168 391168 0.1 1.0043325 11 0 0 0 0
2115	49613241 202 391168 391168 0.1 1.0043325 11 0 0 0 0
2116	49613443 202 391168 391168 0.1 1.0043325 11 0 0 0 0
2117	49613645 202 391168 391168 0.1 1.0043325 11 0 0 0 0
2118	49613847 202 391168 391168 0.1 1.0043325 11 0 0 0 0
2119	49614049 202 391168 391168 0.1 1.0043325 11 0 0 0 0
2120	49614251 202 391168 391168 0.1 1.0043325 11 0 0 0 0
2121	49614453 202 391168 391168 0.1 1.0043325 11 0 0 0 0
2122	49614655 202 391168 391168 0.1 1.0043325 11 0 0 0 0
2123	49614857 202 391168 391168 0.1 1.0043325 11 0 0 0 0
2124	49615059 202 391168 391168 0.1 1.0043325 11 0 0 0 0
2125	49615261 202 391168 391168 0.1 1.0043325 11 0 0 0 0
2126	49615463 202 391168 391168 0.1 1.0043325 11 0 0 0 0
2127	49615665 202 391168 391168 0.1 1.0043325 11 0 0 0 0
2128	49615867 202 391168 391168 0.1 1.0043325 11 0 0 0 0
2129	49616069 202 391168 391168 0.1 1.0043325 11 0 0 0 0
2130	49616271 202 391168 391168 0.1 1.0043325 11 0 0 0 0
2131	49616473 202 391168 391168 0.1 1.0043325 11 0 0 0 0
2132	49616675 202 391168 391168 0.1 1.0043325 11 0 0 0 0
2133	49616877 202 391168 391168 0.1 1.0043325 11 0 0 0 0
2134	49617079 202 391168 391168 0.1 1.0043325 11 0 0 0 0
2135	49617281 202 391168 391168 0.1 1.0043325 11 0 0 0 0
2136	49617483 202 391168 391168 0.1 1.0043325 11 0 0 0 0
2137	49617685 202 391168 391168 0.1 1.0043325 11 0 0 0 0
2138	49617887 202 391168 391168 0.1 1.0043325 11 0 0 0 0
2139	49618089 202 391168 391168 0.1 1.0043325 11 0 0 0 0
2140	49618291 202 391168 391168 0.1 1.0043325 11 0 0 0 0
2141	49618493 202 391168 391168 0.1 1.0043325 11 0 0 0 0
2142	49618695 202 391168 391168 0.1 1.0043325 11 0 0 0 0
2143	49618897 202 391168 391168 0.1 1.0043325 11 0 0 0 0
2144	49619099 202 391168 391168 0.1 1.0043325 11 0 0 0 0
2145	49619301 202 391168 391168 0.1 1.0043325 11 0 0 0 0
2146	49619503 202 391168 391168 0.1 1.0043325 11 0 0 0 0
2147	49619705 202 391168 391168 0.1 1.0043325 11 0 0 0 0
2148	49619907 202 391168 391168 0.1 1.0043325 11 0 0 0 0
2149	49620109 202 391168 391168 0.1 1.0043325 11 0 0 0 0
2150	49620311 202 391168 391168 0.1 1.0043325 11 0 0 0 0
2151	49620513 202 391168 391168 0.1 1.0043325 11 0 0 0 0
2152	49620715 202 391168 391168 0.1 1.0043325 11 0 0 0 0
2153	49620917 202 391168 391168 0.1 1.0043325 11 0 0 0 0
2154	49621119 202 391168 391168 0.1 1.0043325 11 0 0 0 0
2155	49621321 202 391168 391168 0.1 1.0043325 11 0 0 0 0
2156	49621523 202 391168 391168 0.1 1.0043325 11 0 0 0 0
2157	49621725 202 391168 391168 0.1 1.0043325 11 0 0 0 0
2158	49621927 202 391168 391168 0.1 1.0043325 11 0 0 0 0
2159	49622129 202 391168 391168 0.1 1.0043325 11 0 0 0 0
2160	49622331 202 391168 391168 0.1 1.0043325 11 0 0 0 0
2161	49622533 202 391168 391168 0.1 1.0043325 11 0 0 0 0
2162	49622735 202 391168 391168 0.1 1.0043325 11 0 0 0 0
2163	49622937 202 391168 391168 0.1 1.0043325 11 0 0 0 0
2164	49623139 202 391168 391168 0.1 1.0043325 11 0 0 0 0
2165	49623341 202 391168 391168 0.1 1.0043325 11 0 0 0 0
2166	49623543 202 391168 391168 0.1 1.0043325 11 0 0 0 0
2167	49623745 202 391168 391168 0.1 1.0043325 11 0 0 0 0
2168	49623947 202 391168 391168 0.1 1.0043325 11 0 0 0 0
2169	49624149 202 391168 391168 0.1 1.0043325 11 0 0 0 0
2170	49624351 202 391168 391168 0.1 1.0043325 11 0 0 0 0
2171	49624553 202 391168 391168 0.1 1.0043325 11 0 0 0 0
2172	49624755 202 391168 391168 0.1 1.0043325 11 0 0 0 0
2173	49624957 202 391168 391168 0.1 1.0043325 11 0 0 0 0
2174	49625159 202 391168 391168 0.1 1.0043325 11 0 0 0 0
2175	49625361 202 391168 391168 0.1 1.0043325 11 0 0 0 0
2176	49625563 202 391168 391168 0.1 1.0043325 11 0 0 0 0
2177	49625765 202 391168 391168 0.1 1.0043325 11 0 0 0 0
2178	49625967 202 391168 391168 0.1 1.0043325 11 0 0 0 0
2179	49626169 202 391168 391168 0.1 1.0043325 11 0 0 0 0
2180	49626371 202 391168 391168 0.1 1.0043325 11 0 0 0 0
2181	49626573 202 391168 391168 0.1 1.0043325 11 0 0 0 0
2182	49626775 202 391168 391168 0.1 1.0043325 11 0 0 0 0

